*SPEF "ieee 1481-1999"
*DESIGN "counter_8bit"
*DATE "22:32:10 Monday May 11, 2026"
*VENDOR "The OpenROAD Project"
*PROGRAM "OpenROAD"
*VERSION "dcf36133a369abc8f3c5e5738cd4d82e4903c0e0"
*DESIGN_FLOW "NAME_SCOPE LOCAL" "PIN_CAP NONE"
*DIVIDER /
*DELIMITER :
*BUS_DELIMITER []
*T_UNIT 1 NS
*C_UNIT 1 PF
*R_UNIT 1 OHM
*L_UNIT 1 HENRY

*NAME_MAP
*3 clk_i
*4 count_o[0]
*5 count_o[1]
*6 count_o[2]
*7 count_o[3]
*8 count_o[4]
*9 count_o[5]
*10 count_o[6]
*11 count_o[7]
*12 en_i
*13 ovf_o
*14 rst_ni
*15 _00_
*16 _01_
*17 _02_
*18 _03_
*19 _04_
*20 _05_
*21 _06_
*22 _07_
*23 _08_
*24 _09_
*25 _10_
*26 _11_
*27 _12_
*28 _13_
*29 _14_
*30 _15_
*31 _16_
*32 _17_
*33 _18_
*34 _19_
*35 _20_
*36 _21_
*37 _22_
*38 _23_
*39 _24_
*40 _25_
*41 _26_
*42 _27_
*43 _28_
*44 _29_
*45 _30_
*46 _31_
*47 _32_
*48 _33_
*49 clknet_0_clk_i
*50 clknet_1_0__leaf_clk_i
*51 clknet_1_1__leaf_clk_i
*52 net1
*53 net10
*54 net11
*55 net2
*56 net3
*57 net4
*58 net5
*59 net6
*60 net7
*61 net8
*62 net9
*63 FILLER_0_104
*64 FILLER_0_112
*65 FILLER_0_116
*66 FILLER_0_118
*67 FILLER_0_2
*68 FILLER_0_36
*69 FILLER_0_70
*70 FILLER_10_102
*71 FILLER_10_104
*72 FILLER_10_107
*73 FILLER_10_115
*74 FILLER_10_23
*75 FILLER_10_37
*76 FILLER_11_87
*77 FILLER_12_107
*78 FILLER_12_115
*79 FILLER_12_2
*80 FILLER_12_32
*81 FILLER_12_34
*82 FILLER_12_47
*83 FILLER_12_51
*84 FILLER_12_89
*85 FILLER_13_104
*86 FILLER_13_112
*87 FILLER_13_116
*88 FILLER_13_118
*89 FILLER_13_24
*90 FILLER_13_56
*91 FILLER_13_64
*92 FILLER_13_68
*93 FILLER_13_72
*94 FILLER_14_101
*95 FILLER_14_107
*96 FILLER_14_115
*97 FILLER_14_18
*98 FILLER_14_34
*99 FILLER_14_37
*100 FILLER_15_104
*101 FILLER_15_112
*102 FILLER_15_116
*103 FILLER_15_118
*104 FILLER_15_2
*105 FILLER_15_66
*106 FILLER_15_72
*107 FILLER_16_101
*108 FILLER_16_104
*109 FILLER_16_112
*110 FILLER_16_116
*111 FILLER_16_118
*112 FILLER_16_2
*113 FILLER_16_36
*114 FILLER_16_70
*115 FILLER_16_74
*116 FILLER_16_76
*117 FILLER_16_93
*118 FILLER_1_104
*119 FILLER_1_112
*120 FILLER_1_116
*121 FILLER_1_118
*122 FILLER_1_2
*123 FILLER_1_34
*124 FILLER_1_50
*125 FILLER_1_67
*126 FILLER_1_69
*127 FILLER_1_72
*128 FILLER_2_104
*129 FILLER_2_107
*130 FILLER_2_115
*131 FILLER_2_2
*132 FILLER_2_34
*133 FILLER_2_37
*134 FILLER_2_45
*135 FILLER_2_49
*136 FILLER_2_80
*137 FILLER_2_96
*138 FILLER_3_104
*139 FILLER_3_112
*140 FILLER_3_116
*141 FILLER_3_118
*142 FILLER_3_18
*143 FILLER_3_2
*144 FILLER_3_26
*145 FILLER_3_30
*146 FILLER_3_60
*147 FILLER_3_68
*148 FILLER_3_72
*149 FILLER_4_10
*150 FILLER_4_103
*151 FILLER_4_107
*152 FILLER_4_115
*153 FILLER_4_19
*154 FILLER_4_2
*155 FILLER_4_87
*156 FILLER_5_112
*157 FILLER_5_116
*158 FILLER_5_118
*159 FILLER_5_31
*160 FILLER_5_35
*161 FILLER_5_59
*162 FILLER_5_67
*163 FILLER_5_69
*164 FILLER_5_80
*165 FILLER_6_101
*166 FILLER_6_107
*167 FILLER_6_115
*168 FILLER_6_14
*169 FILLER_6_2
*170 FILLER_6_60
*171 FILLER_7_23
*172 FILLER_7_39
*173 FILLER_7_50
*174 FILLER_7_58
*175 FILLER_7_83
*176 FILLER_7_99
*177 FILLER_8_103
*178 FILLER_8_107
*179 FILLER_8_115
*180 FILLER_8_31
*181 FILLER_8_37
*182 FILLER_8_89
*183 FILLER_8_95
*184 FILLER_9_101
*185 FILLER_9_117
*186 FILLER_9_31
*187 FILLER_9_47
*188 FILLER_9_55
*189 FILLER_9_57
*190 PHY_EDGE_ROW_0_Left_17
*191 PHY_EDGE_ROW_0_Right_0
*192 PHY_EDGE_ROW_10_Left_27
*193 PHY_EDGE_ROW_10_Right_10
*194 PHY_EDGE_ROW_11_Left_28
*195 PHY_EDGE_ROW_11_Right_11
*196 PHY_EDGE_ROW_12_Left_29
*197 PHY_EDGE_ROW_12_Right_12
*198 PHY_EDGE_ROW_13_Left_30
*199 PHY_EDGE_ROW_13_Right_13
*200 PHY_EDGE_ROW_14_Left_31
*201 PHY_EDGE_ROW_14_Right_14
*202 PHY_EDGE_ROW_15_Left_32
*203 PHY_EDGE_ROW_15_Right_15
*204 PHY_EDGE_ROW_16_Left_33
*205 PHY_EDGE_ROW_16_Right_16
*206 PHY_EDGE_ROW_1_Left_18
*207 PHY_EDGE_ROW_1_Right_1
*208 PHY_EDGE_ROW_2_Left_19
*209 PHY_EDGE_ROW_2_Right_2
*210 PHY_EDGE_ROW_3_Left_20
*211 PHY_EDGE_ROW_3_Right_3
*212 PHY_EDGE_ROW_4_Left_21
*213 PHY_EDGE_ROW_4_Right_4
*214 PHY_EDGE_ROW_5_Left_22
*215 PHY_EDGE_ROW_5_Right_5
*216 PHY_EDGE_ROW_6_Left_23
*217 PHY_EDGE_ROW_6_Right_6
*218 PHY_EDGE_ROW_7_Left_24
*219 PHY_EDGE_ROW_7_Right_7
*220 PHY_EDGE_ROW_8_Left_25
*221 PHY_EDGE_ROW_8_Right_8
*222 PHY_EDGE_ROW_9_Left_26
*223 PHY_EDGE_ROW_9_Right_9
*224 TAP_TAPCELL_ROW_0_34
*225 TAP_TAPCELL_ROW_0_35
*226 TAP_TAPCELL_ROW_0_36
*227 TAP_TAPCELL_ROW_10_50
*228 TAP_TAPCELL_ROW_10_51
*229 TAP_TAPCELL_ROW_11_52
*230 TAP_TAPCELL_ROW_12_53
*231 TAP_TAPCELL_ROW_12_54
*232 TAP_TAPCELL_ROW_13_55
*233 TAP_TAPCELL_ROW_14_56
*234 TAP_TAPCELL_ROW_14_57
*235 TAP_TAPCELL_ROW_15_58
*236 TAP_TAPCELL_ROW_16_59
*237 TAP_TAPCELL_ROW_16_60
*238 TAP_TAPCELL_ROW_16_61
*239 TAP_TAPCELL_ROW_1_37
*240 TAP_TAPCELL_ROW_2_38
*241 TAP_TAPCELL_ROW_2_39
*242 TAP_TAPCELL_ROW_3_40
*243 TAP_TAPCELL_ROW_4_41
*244 TAP_TAPCELL_ROW_4_42
*245 TAP_TAPCELL_ROW_5_43
*246 TAP_TAPCELL_ROW_6_44
*247 TAP_TAPCELL_ROW_6_45
*248 TAP_TAPCELL_ROW_7_46
*249 TAP_TAPCELL_ROW_8_47
*250 TAP_TAPCELL_ROW_8_48
*251 TAP_TAPCELL_ROW_9_49
*252 _34_
*253 _35_
*254 _36_
*255 _37_
*256 _38_
*257 _39_
*258 _40_
*259 _41_
*260 _42_
*261 _43_
*262 _44_
*263 _45_
*264 _46_
*265 _47_
*266 _48_
*267 _49_
*268 _50_
*269 _51_
*270 _52_
*271 _53_
*272 _54_
*273 _55_
*274 _56_
*275 _57_
*276 _58_
*277 _59_
*278 _60_
*279 _61_
*280 _62_
*281 _63_
*282 _64_
*283 _65_
*284 _66_
*285 _67_
*286 _68_
*287 _69_
*288 _70_
*289 _71_
*290 _72_
*291 _73_
*292 _74_
*293 _75_
*294 _76_
*295 clkbuf_0_clk_i
*296 clkbuf_1_0__f_clk_i
*297 clkbuf_1_1__f_clk_i
*298 clkload0
*299 input1
*300 input2
*301 output10
*302 output11
*303 output3
*304 output4
*305 output5
*306 output6
*307 output7
*308 output8
*309 output9

*PORTS
clk_i I
count_o[0] O
count_o[1] O
count_o[2] O
count_o[3] O
count_o[4] O
count_o[5] O
count_o[6] O
count_o[7] O
en_i I
ovf_o O
rst_ni I

*D_NET *3 0.00566548
*CONN
*P clk_i I
*I *295:I I *D gf180mcu_fd_sc_mcu7t5v0__clkbuf_16
*CAP
1 clk_i 0.00175509
2 *295:I 8.83709e-05
3 *3:10 0.00184346
4 *295:I *30:12 7.64603e-05
5 *295:I *36:8 0
6 *3:10 count_o[0] 3.97033e-05
7 *3:10 count_o[1] 0.000134166
8 *3:10 *258:I 6.06951e-05
9 *3:10 *260:A1 8.28369e-05
10 *3:10 *260:A2 0.00021759
11 *3:10 *261:A1 5.18435e-05
12 *3:10 *263:A2 0.000131804
13 *3:10 *285:A1 5.28859e-05
14 *3:10 *286:D 8.86678e-06
15 *3:10 *287:CLK 2.55592e-05
16 *3:10 *298:I 0
17 *3:10 *299:I 3.37878e-06
18 *3:10 *30:12 0.000171428
19 *3:10 *36:8 0
20 *3:10 *52:36 6.26694e-05
21 *3:10 *55:10 0
22 *3:10 *55:66 0.000245952
23 *3:10 *56:10 4.7839e-05
24 *3:10 *56:14 0.000102694
25 *3:10 *57:8 0.000210371
26 *3:10 *57:23 0.000251826
*RES
1 clk_i *3:10 20.3786 
2 *3:10 *295:I 5.31343 
*END

*D_NET *4 0.00184057
*CONN
*P count_o[0] O
*I *303:Z O *D gf180mcu_fd_sc_mcu7t5v0__dlyb_1
*CAP
1 count_o[0] 0.000877648
2 *303:Z 0.000877648
3 count_o[0] count_o[1] 4.5575e-05
4 *3:10 count_o[0] 3.97033e-05
*RES
1 *303:Z count_o[0] 15.708 
*END

*D_NET *5 0.0013593
*CONN
*P count_o[1] O
*I *304:Z O *D gf180mcu_fd_sc_mcu7t5v0__dlyb_1
*CAP
1 count_o[1] 0.000415782
2 *304:Z 0.000415782
3 count_o[1] *299:I 0.000337255
4 count_o[1] *300:I 1.07369e-05
5 count_o[1] *304:I 0
6 count_o[0] count_o[1] 4.5575e-05
7 *3:10 count_o[1] 0.000134166
*RES
1 *304:Z count_o[1] 13.524 
*END

*D_NET *6 0.000671938
*CONN
*P count_o[2] O
*I *305:Z O *D gf180mcu_fd_sc_mcu7t5v0__dlyb_1
*CAP
1 count_o[2] 0.000333914
2 *305:Z 0.000333914
3 count_o[2] *269:A1 4.11062e-06
4 count_o[2] *269:A2 0
*RES
1 *305:Z count_o[2] 11.444 
*END

*D_NET *7 0.000981947
*CONN
*P count_o[3] O
*I *306:Z O *D gf180mcu_fd_sc_mcu7t5v0__dlyb_1
*CAP
1 count_o[3] 0.000322083
2 *306:Z 0.000322083
3 count_o[3] *288:CLK 0.00033778
*RES
1 *306:Z count_o[3] 11.86 
*END

*D_NET *8 0.00107586
*CONN
*P count_o[4] O
*I *307:Z O *D gf180mcu_fd_sc_mcu7t5v0__dlyb_1
*CAP
1 count_o[4] 0.00051025
2 *307:Z 0.00051025
3 count_o[4] count_o[5] 5.53638e-05
*RES
1 *307:Z count_o[4] 8.4 
*END

*D_NET *9 0.000703637
*CONN
*P count_o[5] O
*I *308:Z O *D gf180mcu_fd_sc_mcu7t5v0__dlyb_1
*CAP
1 count_o[5] 0.000324137
2 *308:Z 0.000324137
3 count_o[4] count_o[5] 5.53638e-05
*RES
1 *308:Z count_o[5] 7.152 
*END

*D_NET *10 0.000717934
*CONN
*P count_o[6] O
*I *309:Z O *D gf180mcu_fd_sc_mcu7t5v0__dlyb_1
*CAP
1 count_o[6] 0.000358967
2 *309:Z 0.000358967
*RES
1 *309:Z count_o[6] 11.652 
*END

*D_NET *11 0.000922959
*CONN
*P count_o[7] O
*I *301:Z O *D gf180mcu_fd_sc_mcu7t5v0__dlyb_1
*CAP
1 count_o[7] 0.00046148
2 *301:Z 0.00046148
*RES
1 *301:Z count_o[7] 12.484 
*END

*D_NET *12 0.00136702
*CONN
*P en_i I
*I *299:I I *D gf180mcu_fd_sc_mcu7t5v0__dlyb_1
*CAP
1 en_i 0.000261989
2 *299:I 0.000261989
3 *299:I *269:A2 0
4 *299:I *300:I 0.000502412
5 count_o[1] *299:I 0.000337255
6 *3:10 *299:I 3.37878e-06
*RES
1 en_i *299:I 12.692 
*END

*D_NET *13 0.00069952
*CONN
*P ovf_o O
*I *302:Z O *D gf180mcu_fd_sc_mcu7t5v0__dlyb_1
*CAP
1 ovf_o 0.00034976
2 *302:Z 0.00034976
*RES
1 *302:Z ovf_o 7.152 
*END

*D_NET *14 0.00125687
*CONN
*P rst_ni I
*I *300:I I *D gf180mcu_fd_sc_mcu7t5v0__dlyb_1
*CAP
1 rst_ni 0.000371861
2 *300:I 0.000371861
3 *300:I *55:10 0
4 count_o[1] *300:I 1.07369e-05
5 *299:I *300:I 0.000502412
*RES
1 rst_ni *300:I 12.692 
*END

*D_NET *15 0.00127432
*CONN
*I *286:D I *D gf180mcu_fd_sc_mcu7t5v0__dffq_1
*I *261:ZN O *D gf180mcu_fd_sc_mcu7t5v0__aoi22_1
*CAP
1 *286:D 0.000386847
2 *261:ZN 0.000386847
3 *286:D *258:I 5.41707e-06
4 *286:D *261:A2 1.823e-05
5 *286:D *283:A1 1.23478e-05
6 *286:D *285:A1 0.000288736
7 *286:D *55:62 4.17612e-05
8 *286:D *55:86 0.000125263
9 *3:10 *286:D 8.86678e-06
*RES
1 *261:ZN *286:D 20.912 
*END

*D_NET *16 0.000631149
*CONN
*I *287:D I *D gf180mcu_fd_sc_mcu7t5v0__dffq_1
*I *265:ZN O *D gf180mcu_fd_sc_mcu7t5v0__nor2_1
*CAP
1 *287:D 0.000187487
2 *265:ZN 0.000187487
3 *287:D *265:A1 4.49307e-05
4 *287:D *265:A2 0.000176649
5 *287:D *57:23 3.4596e-05
*RES
1 *265:ZN *287:D 10.872 
*END

*D_NET *17 0.00168072
*CONN
*I *288:D I *D gf180mcu_fd_sc_mcu7t5v0__dffq_1
*I *269:ZN O *D gf180mcu_fd_sc_mcu7t5v0__aoi21_1
*CAP
1 *288:D 0.000175345
2 *269:ZN 0.000175345
3 *288:D *269:A1 0.00105151
4 *288:D *269:A2 0.000254209
5 *288:D *271:A1 6.18411e-06
6 *288:D *271:A2 7.18388e-06
7 *288:D *288:CLK 1.09486e-05
*RES
1 *269:ZN *288:D 12.224 
*END

*D_NET *18 0.000617777
*CONN
*I *289:D I *D gf180mcu_fd_sc_mcu7t5v0__dffq_1
*I *271:ZN O *D gf180mcu_fd_sc_mcu7t5v0__aoi21_1
*CAP
1 *289:D 0.000229813
2 *271:ZN 0.000229813
3 *289:D *271:A1 0.000158152
*RES
1 *271:ZN *289:D 10.872 
*END

*D_NET *19 0.00200785
*CONN
*I *290:D I *D gf180mcu_fd_sc_mcu7t5v0__dffq_1
*I *274:ZN O *D gf180mcu_fd_sc_mcu7t5v0__nor3_1
*CAP
1 *290:D 0.000932356
2 *274:ZN 0.000932356
3 *290:D *272:A2 0
4 *290:D *273:A2 0.000121862
5 *290:D *290:CLK 0
6 *290:D *37:14 4.16111e-06
7 *290:D *50:25 1.14855e-05
8 *290:D *59:10 0
9 *290:D *60:31 5.63044e-06
*RES
1 *274:ZN *290:D 14.824 
*END

*D_NET *20 0.00205057
*CONN
*I *291:D I *D gf180mcu_fd_sc_mcu7t5v0__dffq_1
*I *277:Z O *D gf180mcu_fd_sc_mcu7t5v0__and3_1
*CAP
1 *291:D 0.000357333
2 *277:Z 0.000357333
3 *291:D *291:CLK 0.000118091
4 *291:D *307:I 0.000216101
5 *291:D *60:21 0.00100171
*RES
1 *277:Z *291:D 13.368 
*END

*D_NET *21 0.00116618
*CONN
*I *292:D I *D gf180mcu_fd_sc_mcu7t5v0__dffq_1
*I *280:ZN O *D gf180mcu_fd_sc_mcu7t5v0__aoi211_1
*CAP
1 *292:D 0.000245721
2 *280:ZN 0.000245721
3 *292:D *278:A3 0.000103788
4 *292:D *279:A1 0.000334711
5 *292:D *279:A2 0.000195825
6 *292:D *280:A1 1.65411e-05
7 *292:D *280:B 2.38773e-05
*RES
1 *280:ZN *292:D 20.496 
*END

*D_NET *22 0.000731005
*CONN
*I *293:D I *D gf180mcu_fd_sc_mcu7t5v0__dffq_1
*I *283:Z O *D gf180mcu_fd_sc_mcu7t5v0__and3_1
*CAP
1 *293:D 0.000307835
2 *283:Z 0.000307835
3 *293:D *283:A2 0.000115335
*RES
1 *283:Z *293:D 11.392 
*END

*D_NET *23 0.000394289
*CONN
*I *294:D I *D gf180mcu_fd_sc_mcu7t5v0__dffq_1
*I *285:ZN O *D gf180mcu_fd_sc_mcu7t5v0__oai21_1
*CAP
1 *294:D 0.000188578
2 *285:ZN 0.000188578
3 *294:D *285:A2 1.71326e-05
4 *294:D *294:CLK 0
*RES
1 *285:ZN *294:D 10.248 
*END

*D_NET *24 0.00326957
*CONN
*I *282:A1 I *D gf180mcu_fd_sc_mcu7t5v0__or4_1
*I *281:B I *D gf180mcu_fd_sc_mcu7t5v0__oai31_1
*I *252:ZN O *D gf180mcu_fd_sc_mcu7t5v0__clkinv_1
*CAP
1 *282:A1 0.000180024
2 *281:B 9.1618e-05
3 *252:ZN 0.000779708
4 *24:10 0.00105135
5 *281:B *282:A2 0.000337769
6 *281:B *30:12 0
7 *282:A1 *282:A2 0.000582267
8 *282:A1 *30:12 0
9 *24:10 *278:A1 2.57864e-05
10 *24:10 *280:A1 0
11 *24:10 *283:A2 0.000151461
12 *24:10 *61:29 0
13 *24:10 *62:23 6.95869e-05
*RES
1 *252:ZN *24:10 20.26 
2 *24:10 *281:B 5.436 
3 *24:10 *282:A1 6.58 
*END

*D_NET *25 0.00272582
*CONN
*I *280:A1 I *D gf180mcu_fd_sc_mcu7t5v0__aoi211_1
*I *253:ZN O *D gf180mcu_fd_sc_mcu7t5v0__clkinv_1
*CAP
1 *280:A1 0.000288947
2 *253:ZN 0.000288947
3 *280:A1 *278:A1 0.000280581
4 *280:A1 *278:A3 9.95819e-06
5 *280:A1 *279:A2 1.06742e-05
6 *280:A1 *280:B 4.07478e-05
7 *280:A1 *280:C 2.19883e-05
8 *280:A1 *283:A2 8.88134e-05
9 *280:A1 *28:54 1.01702e-05
10 *280:A1 *37:50 0.000314918
11 *280:A1 *44:12 0.000614671
12 *280:A1 *61:29 0.000738863
13 *292:D *280:A1 1.65411e-05
14 *24:10 *280:A1 0
*RES
1 *253:ZN *280:A1 22.16 
*END

*D_NET *26 0.000169708
*CONN
*I *275:B I *D gf180mcu_fd_sc_mcu7t5v0__oai31_1
*I *254:ZN O *D gf180mcu_fd_sc_mcu7t5v0__clkinv_1
*CAP
1 *275:B 8.48539e-05
2 *254:ZN 8.48539e-05
*RES
1 *254:ZN *275:B 9.728 
*END

*D_NET *27 0.00186926
*CONN
*I *275:A1 I *D gf180mcu_fd_sc_mcu7t5v0__oai31_1
*I *273:A1 I *D gf180mcu_fd_sc_mcu7t5v0__nor3_1
*I *255:ZN O *D gf180mcu_fd_sc_mcu7t5v0__clkinv_1
*CAP
1 *275:A1 0.000293766
2 *273:A1 0.000191101
3 *255:ZN 0
4 *27:4 0.000484867
5 *273:A1 *277:A2 0
6 *273:A1 *37:33 2.46831e-05
7 *273:A1 *60:31 0.000188403
8 *275:A1 *275:A2 0.000182219
9 *275:A1 *277:A2 0.00026854
10 *275:A1 *37:33 4.76458e-05
11 *275:A1 *37:46 3.29896e-05
12 *275:A1 *43:8 0.000151903
13 *275:A1 *60:31 3.13994e-06
*RES
1 *255:ZN *27:4 4.5 
2 *27:4 *273:A1 6.164 
3 *27:4 *275:A1 7.516 
*END

*D_NET *28 0.0118263
*CONN
*I *279:A1 I *D gf180mcu_fd_sc_mcu7t5v0__nor3_1
*I *282:A2 I *D gf180mcu_fd_sc_mcu7t5v0__or4_1
*I *281:A1 I *D gf180mcu_fd_sc_mcu7t5v0__oai31_1
*I *275:A2 I *D gf180mcu_fd_sc_mcu7t5v0__oai31_1
*I *273:A2 I *D gf180mcu_fd_sc_mcu7t5v0__nor3_1
*I *270:A1 I *D gf180mcu_fd_sc_mcu7t5v0__oai21_1
*I *271:A1 I *D gf180mcu_fd_sc_mcu7t5v0__aoi21_1
*I *256:ZN O *D gf180mcu_fd_sc_mcu7t5v0__clkinv_1
*CAP
1 *279:A1 0.000260932
2 *282:A2 0.000145639
3 *281:A1 0
4 *275:A2 3.36197e-05
5 *273:A2 8.57753e-05
6 *270:A1 0
7 *271:A1 0.000276077
8 *256:ZN 0
9 *28:54 0.000461411
10 *28:50 0.000731265
11 *28:39 0.00030187
12 *28:28 0.000501668
13 *28:8 0.000315146
14 *28:6 0.000341272
15 *271:A1 *269:B 9.52686e-05
16 *271:A1 *271:A2 0.000946115
17 *271:A1 *50:25 2.62437e-05
18 *273:A2 *60:31 0.000406972
19 *275:A2 *37:33 4.6157e-05
20 *275:A2 *37:46 4.07478e-05
21 *279:A1 *278:A3 7.82967e-05
22 *279:A1 *279:A2 0.000255829
23 *279:A1 *280:A2 0.000199998
24 *279:A1 *280:B 8.91401e-05
25 *279:A1 *292:CLK 0.000178785
26 *279:A1 *37:46 4.94991e-05
27 *279:A1 *61:23 1.98607e-05
28 *282:A2 *282:A3 0.000228466
29 *28:8 *269:B 1.823e-05
30 *28:8 *277:A1 0.000459373
31 *28:8 *306:I 3.71243e-05
32 *28:8 *50:25 9.96503e-05
33 *28:28 *274:A3 0.000148034
34 *28:28 *277:A1 0.00113809
35 *28:28 *37:33 1.06742e-05
36 *28:28 *50:25 2.38498e-05
37 *28:39 *277:A1 0.000752333
38 *28:39 *37:33 8.49559e-05
39 *28:39 *60:23 4.27073e-05
40 *28:50 *277:A1 9.96253e-05
41 *28:50 *278:A3 4.33994e-05
42 *28:50 *280:A2 0.000692314
43 *28:50 *37:46 4.17626e-05
44 *28:50 *60:23 0.000113118
45 *28:54 *254:I 3.23604e-05
46 *28:54 *276:A1 5.52835e-05
47 *28:54 *280:B 3.75921e-06
48 *28:54 *282:A3 5.61634e-05
49 *28:54 *37:50 2.41096e-05
50 *28:54 *43:8 0
51 *275:A1 *275:A2 0.000182219
52 *280:A1 *28:54 1.01702e-05
53 *281:B *282:A2 0.000337769
54 *282:A1 *282:A2 0.000582267
55 *288:D *271:A1 6.18411e-06
56 *289:D *271:A1 0.000158152
57 *290:D *273:A2 0.000121862
58 *292:D *279:A1 0.000334711
*RES
1 *256:ZN *28:6 9 
2 *28:6 *28:8 1.56 
3 *28:8 *271:A1 12.328 
4 *28:8 *270:A1 9 
5 *28:6 *28:28 3.224 
6 *28:28 *273:A2 10.144 
7 *28:28 *28:39 1.976 
8 *28:39 *275:A2 9.52 
9 *28:39 *28:50 2.6 
10 *28:50 *28:54 6.476 
11 *28:54 *281:A1 4.5 
12 *28:54 *282:A2 7.1 
13 *28:50 *279:A1 13.16 
*END

*D_NET *29 0.00254581
*CONN
*I *269:A1 I *D gf180mcu_fd_sc_mcu7t5v0__aoi21_1
*I *257:ZN O *D gf180mcu_fd_sc_mcu7t5v0__clkinv_1
*CAP
1 *269:A1 0.000550819
2 *257:ZN 0.000550819
3 *269:A1 *269:A2 7.20461e-05
4 *269:A1 *288:CLK 0.00015244
5 *269:A1 *305:I 0.00016407
6 count_o[2] *269:A1 4.11062e-06
7 *288:D *269:A1 0.00105151
*RES
1 *257:ZN *269:A1 24.24 
*END

*D_NET *30 0.00941516
*CONN
*I *285:A1 I *D gf180mcu_fd_sc_mcu7t5v0__oai21_1
*I *280:C I *D gf180mcu_fd_sc_mcu7t5v0__aoi211_1
*I *274:A1 I *D gf180mcu_fd_sc_mcu7t5v0__nor3_1
*I *258:ZN O *D gf180mcu_fd_sc_mcu7t5v0__clkinv_1
*CAP
1 *285:A1 0.000458995
2 *280:C 0.00024836
3 *274:A1 0.00028683
4 *258:ZN 0
5 *30:12 0.00121765
6 *30:4 0.00114146
7 *274:A1 *276:A2 6.40967e-05
8 *274:A1 *276:A3 0.000358225
9 *274:A1 *276:A4 6.97265e-05
10 *274:A1 *277:A1 1.57138e-05
11 *274:A1 *59:32 0.000636612
12 *280:C *276:A1 0.000131643
13 *280:C *277:A1 9.37361e-06
14 *280:C *278:A3 6.32781e-05
15 *280:C *279:A2 0.000346468
16 *280:C *280:B 1.71326e-05
17 *280:C *37:46 0.00138527
18 *280:C *61:29 0.000366382
19 *285:A1 *258:I 0.000113027
20 *285:A1 *283:A1 0.00134875
21 *285:A1 *294:CLK 6.8199e-07
22 *285:A1 *47:6 6.29451e-05
23 *285:A1 *49:15 1.823e-05
24 *30:12 *276:A2 0.000419276
25 *30:12 *36:8 0
26 *30:12 *43:8 2.35446e-05
27 *280:A1 *280:C 2.19883e-05
28 *281:B *30:12 0
29 *282:A1 *30:12 0
30 *286:D *285:A1 0.000288736
31 *295:I *30:12 7.64603e-05
32 *3:10 *285:A1 5.28859e-05
33 *3:10 *30:12 0.000171428
*RES
1 *258:ZN *30:4 4.5 
2 *30:4 *30:12 10.428 
3 *30:12 *274:A1 12.224 
4 *30:12 *280:C 14.2 
5 *30:4 *285:A1 19.012 
*END

*D_NET *31 0.00612481
*CONN
*I *284:A2 I *D gf180mcu_fd_sc_mcu7t5v0__nand2_1
*I *261:B1 I *D gf180mcu_fd_sc_mcu7t5v0__aoi22_1
*I *259:ZN O *D gf180mcu_fd_sc_mcu7t5v0__nand2_1
*CAP
1 *284:A2 0.000589336
2 *261:B1 6.70689e-05
3 *259:ZN 9.70983e-05
4 *31:6 0.000753504
5 *261:B1 *261:A1 0.00018099
6 *261:B1 *261:B2 0.000497696
7 *284:A2 *283:A1 0.000448774
8 *284:A2 *283:A2 0
9 *284:A2 *283:A3 8.29207e-05
10 *284:A2 *285:B 0.000164211
11 *284:A2 *287:CLK 0.000988224
12 *284:A2 *51:17 0.00105348
13 *284:A2 *51:19 0.000501134
14 *284:A2 *55:62 3.66842e-05
15 *284:A2 *55:86 6.96716e-05
16 *31:6 *259:A1 0.000104921
17 *31:6 *261:A1 5.36847e-05
18 *31:6 *261:B2 0.000435416
*RES
1 *259:ZN *31:6 5.852 
2 *31:6 *261:B1 5.852 
3 *31:6 *284:A2 22.444 
*END

*D_NET *32 0.00152675
*CONN
*I *261:B2 I *D gf180mcu_fd_sc_mcu7t5v0__aoi22_1
*I *260:ZN O *D gf180mcu_fd_sc_mcu7t5v0__nand2_1
*CAP
1 *261:B2 0.000256124
2 *260:ZN 0.000256124
3 *261:B2 *260:A1 8.13929e-05
4 *261:B2 *261:A2 0
5 *261:B2 *56:8 0
6 *261:B2 *56:38 0
7 *261:B1 *261:B2 0.000497696
8 *31:6 *261:B2 0.000435416
*RES
1 *260:ZN *261:B2 11.6 
*END

*D_NET *33 0.00207651
*CONN
*I *265:A1 I *D gf180mcu_fd_sc_mcu7t5v0__nor2_1
*I *262:ZN O *D gf180mcu_fd_sc_mcu7t5v0__aoi21_1
*CAP
1 *265:A1 9.38132e-05
2 *262:ZN 9.38132e-05
3 *265:A1 *262:A2 3.4596e-05
4 *265:A1 *265:A2 0.000782435
5 *265:A1 *303:I 0.00102692
6 *287:D *265:A1 4.49307e-05
*RES
1 *262:ZN *265:A1 11.808 
*END

*D_NET *34 0.0034318
*CONN
*I *264:A2 I *D gf180mcu_fd_sc_mcu7t5v0__nand2_1
*I *269:A2 I *D gf180mcu_fd_sc_mcu7t5v0__aoi21_1
*I *263:ZN O *D gf180mcu_fd_sc_mcu7t5v0__nand3_1
*CAP
1 *264:A2 0
2 *269:A2 0.000756099
3 *263:ZN 0.000351142
4 *34:12 0.00110724
5 *269:A2 *271:A2 4.67771e-06
6 *269:A2 *305:I 7.7184e-05
7 *269:A2 *306:I 0.000237629
8 *269:A2 *37:87 7.9669e-06
9 *269:A2 *52:10 0.000118787
10 *269:A2 *55:10 2.47495e-05
11 *269:A2 *55:27 0
12 *269:A2 *55:29 0
13 *34:12 *265:A2 8.13929e-05
14 *34:12 *52:25 8.72883e-05
15 *34:12 *55:10 8.92003e-05
16 *34:12 *55:16 3.65102e-05
17 *34:12 *55:27 1.07369e-05
18 *34:12 *55:62 7.82526e-05
19 *34:12 *56:14 3.66842e-05
20 count_o[2] *269:A2 0
21 *269:A1 *269:A2 7.20461e-05
22 *288:D *269:A2 0.000254209
23 *299:I *269:A2 0
*RES
1 *263:ZN *34:12 16.412 
2 *34:12 *269:A2 20.572 
3 *34:12 *264:A2 4.5 
*END

*D_NET *35 0.00207061
*CONN
*I *265:A2 I *D gf180mcu_fd_sc_mcu7t5v0__nor2_1
*I *264:ZN O *D gf180mcu_fd_sc_mcu7t5v0__nand2_1
*CAP
1 *265:A2 0.000323436
2 *264:ZN 0.000323436
3 *265:A2 *262:A2 3.10673e-05
4 *265:A2 *264:A1 3.3698e-05
5 *265:A2 *52:21 0.000170265
6 *265:A2 *55:10 5.47431e-06
7 *265:A2 *55:16 4.58286e-05
8 *265:A2 *57:23 7.24553e-05
9 *265:A2 *57:25 2.44694e-05
10 *265:A1 *265:A2 0.000782435
11 *287:D *265:A2 0.000176649
12 *34:12 *265:A2 8.13929e-05
*RES
1 *264:ZN *265:A2 13.264 
*END

*D_NET *36 0.00245194
*CONN
*I *272:A2 I *D gf180mcu_fd_sc_mcu7t5v0__aoi21_1
*I *276:A4 I *D gf180mcu_fd_sc_mcu7t5v0__nand4_1
*I *266:Z O *D gf180mcu_fd_sc_mcu7t5v0__and4_1
*CAP
1 *272:A2 0.000297844
2 *276:A4 0.000137532
3 *266:Z 0.000703627
4 *36:8 0.001139
5 *272:A2 *272:A1 3.22108e-05
6 *272:A2 *276:A3 1.84067e-05
7 *272:A2 *37:14 0
8 *36:8 *37:8 5.29054e-05
9 *36:8 *37:14 6.8199e-07
10 *274:A1 *276:A4 6.97265e-05
11 *290:D *272:A2 0
12 *295:I *36:8 0
13 *3:10 *36:8 0
14 *30:12 *36:8 0
*RES
1 *266:Z *36:8 9.284 
2 *36:8 *276:A4 14.644 
3 *36:8 *272:A2 6.372 
*END

*D_NET *37 0.0155995
*CONN
*I *268:A2 I *D gf180mcu_fd_sc_mcu7t5v0__nand2_1
*I *270:A2 I *D gf180mcu_fd_sc_mcu7t5v0__oai21_1
*I *271:A2 I *D gf180mcu_fd_sc_mcu7t5v0__aoi21_1
*I *279:A2 I *D gf180mcu_fd_sc_mcu7t5v0__nor3_1
*I *281:A2 I *D gf180mcu_fd_sc_mcu7t5v0__oai31_1
*I *282:A3 I *D gf180mcu_fd_sc_mcu7t5v0__or4_1
*I *275:A3 I *D gf180mcu_fd_sc_mcu7t5v0__oai31_1
*I *273:A3 I *D gf180mcu_fd_sc_mcu7t5v0__nor3_1
*I *267:ZN O *D gf180mcu_fd_sc_mcu7t5v0__nand4_1
*CAP
1 *268:A2 0
2 *270:A2 0
3 *271:A2 0.000310965
4 *279:A2 0.000240377
5 *281:A2 0
6 *282:A3 0.000328293
7 *275:A3 0
8 *273:A3 4.47015e-05
9 *267:ZN 0.000464369
10 *37:87 0.000580916
11 *37:81 0.000609697
12 *37:50 0.000433691
13 *37:46 0.000545848
14 *37:33 0.000581903
15 *37:14 0.00105977
16 *37:8 0.00143736
17 *271:A2 *269:B 1.07369e-05
18 *271:A2 *271:B 0.000946115
19 *271:A2 *55:29 1.32185e-05
20 *279:A2 *278:A3 5.77431e-06
21 *279:A2 *292:CLK 1.8858e-05
22 *279:A2 *61:23 0.000651459
23 *279:A2 *61:29 0.000133459
24 *282:A3 *278:A3 0
25 *282:A3 *282:A4 0.000213968
26 *282:A3 *44:12 2.38656e-05
27 *37:8 *267:A4 0
28 *37:8 *55:27 0
29 *37:8 *58:8 3.34546e-05
30 *37:14 *274:A3 0.000755022
31 *37:14 *50:10 0
32 *37:14 *50:25 0.000116466
33 *37:14 *59:10 2.60128e-05
34 *37:33 *274:A3 4.17612e-05
35 *37:33 *276:A2 3.4596e-05
36 *37:33 *50:10 0
37 *37:33 *60:23 4.17612e-05
38 *37:33 *60:31 0.000444683
39 *37:46 *276:A2 3.10787e-05
40 *37:46 *277:A1 6.23656e-05
41 *37:46 *280:A2 0.000362263
42 *37:81 *306:I 1.92034e-05
43 *37:81 *59:12 1.92816e-05
44 *37:81 *59:32 5.14264e-06
45 *37:87 *269:B 0.000205662
46 *37:87 *306:I 0.000524907
47 *269:A2 *271:A2 4.67771e-06
48 *269:A2 *37:87 7.9669e-06
49 *271:A1 *271:A2 0.000946115
50 *272:A2 *37:14 0
51 *273:A1 *37:33 2.46831e-05
52 *275:A1 *37:33 4.76458e-05
53 *275:A1 *37:46 3.29896e-05
54 *275:A2 *37:33 4.6157e-05
55 *275:A2 *37:46 4.07478e-05
56 *279:A1 *279:A2 0.000255829
57 *279:A1 *37:46 4.94991e-05
58 *280:A1 *279:A2 1.06742e-05
59 *280:A1 *37:50 0.000314918
60 *280:C *279:A2 0.000346468
61 *280:C *37:46 0.00138527
62 *282:A2 *282:A3 0.000228466
63 *288:D *271:A2 7.18388e-06
64 *290:D *37:14 4.16111e-06
65 *292:D *279:A2 0.000195825
66 *28:28 *37:33 1.06742e-05
67 *28:39 *37:33 8.49559e-05
68 *28:50 *37:46 4.17626e-05
69 *28:54 *282:A3 5.61634e-05
70 *28:54 *37:50 2.41096e-05
71 *36:8 *37:8 5.29054e-05
72 *36:8 *37:14 6.8199e-07
*RES
1 *267:ZN *37:8 7.828 
2 *37:8 *37:14 9.076 
3 *37:14 *273:A3 9.312 
4 *37:14 *37:33 7.828 
5 *37:33 *275:A3 4.5 
6 *37:33 *37:46 8.764 
7 *37:46 *37:50 5.436 
8 *37:50 *282:A3 8.14 
9 *37:50 *281:A2 4.5 
10 *37:46 *279:A2 13.16 
11 *37:8 *37:81 6.684 
12 *37:81 *37:87 7.204 
13 *37:87 *271:A2 9.18 
14 *37:87 *270:A2 4.5 
15 *37:81 *268:A2 9 
*END

*D_NET *38 0.00153575
*CONN
*I *269:B I *D gf180mcu_fd_sc_mcu7t5v0__aoi21_1
*I *268:ZN O *D gf180mcu_fd_sc_mcu7t5v0__nand2_1
*CAP
1 *269:B 0.000364214
2 *268:ZN 0.000364214
3 *269:B *306:I 0.000271764
4 *269:B *50:25 0
5 *269:B *55:29 0.000205662
6 *271:A1 *269:B 9.52686e-05
7 *271:A2 *269:B 1.07369e-05
8 *28:8 *269:B 1.823e-05
9 *37:87 *269:B 0.000205662
*RES
1 *268:ZN *269:B 21.744 
*END

*D_NET *39 0.00144525
*CONN
*I *271:B I *D gf180mcu_fd_sc_mcu7t5v0__aoi21_1
*I *270:ZN O *D gf180mcu_fd_sc_mcu7t5v0__oai21_1
*CAP
1 *271:B 0.000249569
2 *270:ZN 0.000249569
3 *271:A2 *271:B 0.000946115
*RES
1 *270:ZN *271:B 11.6 
*END

*D_NET *40 0.00155416
*CONN
*I *274:A2 I *D gf180mcu_fd_sc_mcu7t5v0__nor3_1
*I *272:ZN O *D gf180mcu_fd_sc_mcu7t5v0__aoi21_1
*CAP
1 *274:A2 6.97559e-05
2 *272:ZN 6.97559e-05
3 *274:A2 *277:A1 0.000707323
4 *274:A2 *59:32 0.000707323
*RES
1 *272:ZN *274:A2 19.976 
*END

*D_NET *41 0.0019704
*CONN
*I *274:A3 I *D gf180mcu_fd_sc_mcu7t5v0__nor3_1
*I *273:ZN O *D gf180mcu_fd_sc_mcu7t5v0__nor3_1
*CAP
1 *274:A3 0.000293799
2 *273:ZN 0.000293799
3 *274:A3 *50:25 4.90268e-05
4 *274:A3 *59:10 0.000388962
5 *28:28 *274:A3 0.000148034
6 *37:14 *274:A3 0.000755022
7 *37:33 *274:A3 4.17612e-05
*RES
1 *273:ZN *274:A3 21.328 
*END

*D_NET *42 0.000729054
*CONN
*I *277:A2 I *D gf180mcu_fd_sc_mcu7t5v0__and3_1
*I *275:ZN O *D gf180mcu_fd_sc_mcu7t5v0__oai31_1
*CAP
1 *277:A2 0.000108109
2 *275:ZN 0.000108109
3 *277:A2 *277:A1 1.71326e-05
4 *277:A2 *277:A3 0.000227165
5 *273:A1 *277:A2 0
6 *275:A1 *277:A2 0.00026854
*RES
1 *275:ZN *277:A2 10.56 
*END

*D_NET *43 0.00281958
*CONN
*I *280:A2 I *D gf180mcu_fd_sc_mcu7t5v0__aoi211_1
*I *277:A3 I *D gf180mcu_fd_sc_mcu7t5v0__and3_1
*I *276:ZN O *D gf180mcu_fd_sc_mcu7t5v0__nand4_1
*CAP
1 *280:A2 0.00010168
2 *277:A3 0.000143306
3 *276:ZN 0.000316612
4 *43:8 0.000561597
5 *43:8 *254:I 1.6137e-05
6 *43:8 *276:A1 2.30605e-05
7 *43:8 *276:A2 0
8 *275:A1 *43:8 0.000151903
9 *277:A2 *277:A3 0.000227165
10 *279:A1 *280:A2 0.000199998
11 *28:50 *280:A2 0.000692314
12 *28:54 *43:8 0
13 *30:12 *43:8 2.35446e-05
14 *37:46 *280:A2 0.000362263
*RES
1 *276:ZN *43:8 6.996 
2 *43:8 *277:A3 5.644 
3 *43:8 *280:A2 15.684 
*END

*D_NET *44 0.00377066
*CONN
*I *279:A3 I *D gf180mcu_fd_sc_mcu7t5v0__nor3_1
*I *282:A4 I *D gf180mcu_fd_sc_mcu7t5v0__or4_1
*I *281:A3 I *D gf180mcu_fd_sc_mcu7t5v0__oai31_1
*I *278:ZN O *D gf180mcu_fd_sc_mcu7t5v0__nand3_1
*CAP
1 *279:A3 0.000202939
2 *282:A4 0.000357115
3 *281:A3 0
4 *278:ZN 0.000261224
5 *44:12 0.0004154
6 *279:A3 *278:A2 8.11931e-06
7 *279:A3 *49:36 0.000112325
8 *279:A3 *61:23 0.0008879
9 *282:A4 *278:A2 0
10 *282:A4 *278:A3 2.81522e-06
11 *282:A4 *283:A2 0
12 *282:A4 *49:6 5.60123e-05
13 *44:12 *278:A3 8.44565e-06
14 *44:12 *283:A2 0.000605863
15 *280:A1 *44:12 0.000614671
16 *282:A3 *282:A4 0.000213968
17 *282:A3 *44:12 2.38656e-05
*RES
1 *278:ZN *44:12 15.372 
2 *44:12 *281:A3 4.5 
3 *44:12 *282:A4 7.62 
4 *278:ZN *279:A3 11.6 
*END

*D_NET *45 0.00119072
*CONN
*I *280:B I *D gf180mcu_fd_sc_mcu7t5v0__aoi211_1
*I *279:ZN O *D gf180mcu_fd_sc_mcu7t5v0__nor3_1
*CAP
1 *280:B 0.000301562
2 *279:ZN 0.000301562
3 *280:B *278:A3 0.000412936
4 *280:B *292:CLK 0
5 *279:A1 *280:B 8.91401e-05
6 *280:A1 *280:B 4.07478e-05
7 *280:C *280:B 1.71326e-05
8 *292:D *280:B 2.38773e-05
9 *28:54 *280:B 3.75921e-06
*RES
1 *279:ZN *280:B 20.704 
*END

*D_NET *46 0.00373788
*CONN
*I *283:A2 I *D gf180mcu_fd_sc_mcu7t5v0__and3_1
*I *281:ZN O *D gf180mcu_fd_sc_mcu7t5v0__oai31_1
*CAP
1 *283:A2 0.000883224
2 *281:ZN 0.000883224
3 *283:A2 *278:A1 0.000113027
4 *283:A2 *278:A2 0.000113027
5 *283:A2 *283:A1 0.000329258
6 *283:A2 *293:CLK 0.000203364
7 *283:A2 *49:6 4.22072e-05
8 *283:A2 *49:15 2.81161e-05
9 *283:A2 *49:31 0
10 *283:A2 *49:36 0
11 *283:A2 *51:17 0.000131932
12 *283:A2 *61:29 4.90319e-05
13 *280:A1 *283:A2 8.88134e-05
14 *282:A4 *283:A2 0
15 *284:A2 *283:A2 0
16 *293:D *283:A2 0.000115335
17 *24:10 *283:A2 0.000151461
18 *44:12 *283:A2 0.000605863
*RES
1 *281:ZN *283:A2 27.152 
*END

*D_NET *47 0.00229112
*CONN
*I *283:A3 I *D gf180mcu_fd_sc_mcu7t5v0__and3_1
*I *285:A2 I *D gf180mcu_fd_sc_mcu7t5v0__oai21_1
*I *282:Z O *D gf180mcu_fd_sc_mcu7t5v0__or4_1
*CAP
1 *283:A3 8.38563e-05
2 *285:A2 3.11931e-05
3 *282:Z 0.000345524
4 *47:6 0.000460573
5 *283:A3 *285:B 0.00061761
6 *283:A3 *294:CLK 0
7 *283:A3 *51:17 0.00036104
8 *47:6 *49:15 0.000159505
9 *47:6 *51:17 6.8824e-05
10 *284:A2 *283:A3 8.29207e-05
11 *285:A1 *47:6 6.29451e-05
12 *294:D *285:A2 1.71326e-05
*RES
1 *282:Z *47:6 7.1 
2 *47:6 *285:A2 4.812 
3 *47:6 *283:A3 15.372 
*END

*D_NET *48 0.00172934
*CONN
*I *285:B I *D gf180mcu_fd_sc_mcu7t5v0__oai21_1
*I *284:ZN O *D gf180mcu_fd_sc_mcu7t5v0__nand2_1
*CAP
1 *285:B 0.000389956
2 *284:ZN 0.000389956
3 *285:B *51:17 0.000167605
4 *283:A3 *285:B 0.00061761
5 *284:A2 *285:B 0.000164211
*RES
1 *284:ZN *285:B 22.68 
*END

*D_NET *49 0.00318631
*CONN
*I *296:I I *D gf180mcu_fd_sc_mcu7t5v0__clkbuf_16
*I *297:I I *D gf180mcu_fd_sc_mcu7t5v0__clkbuf_16
*I *295:Z O *D gf180mcu_fd_sc_mcu7t5v0__clkbuf_16
*CAP
1 *296:I 0.000143549
2 *297:I 0
3 *295:Z 0.000257683
4 *49:36 0.000692213
5 *49:31 0.000700738
6 *49:15 0.000251699
7 *49:6 0.000357308
8 *296:I *61:23 1.5976e-05
9 *49:15 *283:A1 0.000102675
10 *49:15 *293:CLK 0.000203364
11 *49:15 *51:17 2.46717e-05
12 *49:36 *278:A1 1.06067e-05
13 *49:36 *278:A2 0
14 *49:36 *61:23 9.42826e-06
15 *279:A3 *49:36 0.000112325
16 *282:A4 *49:6 5.60123e-05
17 *283:A2 *49:6 4.22072e-05
18 *283:A2 *49:15 2.81161e-05
19 *283:A2 *49:31 0
20 *283:A2 *49:36 0
21 *285:A1 *49:15 1.823e-05
22 *47:6 *49:15 0.000159505
*RES
1 *295:Z *49:6 5.436 
2 *49:6 *49:15 7.62 
3 *49:15 *297:I 9 
4 *295:Z *49:31 5.358 
5 *49:31 *49:36 4.134 
6 *49:36 *296:I 5.436 
*END

*D_NET *50 0.00770678
*CONN
*I *292:CLK I *D gf180mcu_fd_sc_mcu7t5v0__dffq_1
*I *291:CLK I *D gf180mcu_fd_sc_mcu7t5v0__dffq_1
*I *288:CLK I *D gf180mcu_fd_sc_mcu7t5v0__dffq_1
*I *289:CLK I *D gf180mcu_fd_sc_mcu7t5v0__dffq_1
*I *290:CLK I *D gf180mcu_fd_sc_mcu7t5v0__dffq_1
*I *296:Z O *D gf180mcu_fd_sc_mcu7t5v0__clkbuf_16
*CAP
1 *292:CLK 0.00046258
2 *291:CLK 0.000364905
3 *288:CLK 0.000524202
4 *289:CLK 0
5 *290:CLK 0.000275166
6 *296:Z 0.00115386
7 *50:25 0.00154362
8 *50:10 0.00162095
9 *291:CLK *307:I 0