*SPEF "ieee 1481-1999"
*DESIGN "counter_8bit"
*DATE "21:46:12 Monday May 11, 2026"
*VENDOR "The OpenROAD Project"
*PROGRAM "OpenROAD"
*VERSION "dcf36133a369abc8f3c5e5738cd4d82e4903c0e0"
*DESIGN_FLOW "NAME_SCOPE LOCAL" "PIN_CAP NONE"
*DIVIDER /
*DELIMITER :
*BUS_DELIMITER []
*T_UNIT 1 NS
*C_UNIT 1 PF
*R_UNIT 1 OHM
*L_UNIT 1 HENRY

*NAME_MAP
*3 clk_i
*4 count_o[0]
*5 count_o[1]
*6 count_o[2]
*7 count_o[3]
*8 count_o[4]
*9 count_o[5]
*10 count_o[6]
*11 count_o[7]
*12 en_i
*13 ovf_o
*14 rst_ni
*15 _00_
*16 _01_
*17 _02_
*18 _03_
*19 _04_
*20 _05_
*21 _06_
*22 _07_
*23 _08_
*24 _09_
*25 _10_
*26 _11_
*27 _12_
*28 _13_
*29 _14_
*30 _15_
*31 _16_
*32 _17_
*33 _18_
*34 _19_
*35 _20_
*36 _21_
*37 _22_
*38 _23_
*39 _24_
*40 _25_
*41 _26_
*42 _27_
*43 _28_
*44 _29_
*45 _30_
*46 _31_
*47 _32_
*48 _33_
*49 clknet_0_clk_i
*50 clknet_1_0__leaf_clk_i
*51 clknet_1_1__leaf_clk_i
*52 net1
*53 net10
*54 net11
*55 net2
*56 net3
*57 net4
*58 net5
*59 net6
*60 net7
*61 net8
*62 net9
*63 FILLER_0_101
*64 FILLER_0_104
*65 FILLER_0_138
*66 FILLER_0_154
*67 FILLER_0_162
*68 FILLER_0_2
*69 FILLER_0_36
*70 FILLER_0_70
*71 FILLER_0_78
*72 FILLER_0_82
*73 FILLER_0_84
*74 FILLER_10_104
*75 FILLER_10_157
*76 FILLER_10_161
*77 FILLER_10_163
*78 FILLER_10_2
*79 FILLER_10_34
*80 FILLER_10_37
*81 FILLER_10_53
*82 FILLER_10_60
*83 FILLER_10_76
*84 FILLER_11_124
*85 FILLER_11_142
*86 FILLER_11_158
*87 FILLER_11_162
*88 FILLER_11_2
*89 FILLER_11_34
*90 FILLER_11_42
*91 FILLER_11_46
*92 FILLER_11_55
*93 FILLER_11_72
*94 FILLER_12_104
*95 FILLER_12_115
*96 FILLER_12_147
*97 FILLER_12_163
*98 FILLER_12_2
*99 FILLER_12_34
*100 FILLER_12_37
*101 FILLER_12_41
*102 FILLER_12_43
*103 FILLER_13_128
*104 FILLER_13_136
*105 FILLER_13_142
*106 FILLER_13_158
*107 FILLER_13_162
*108 FILLER_13_2
*109 FILLER_13_34
*110 FILLER_13_65
*111 FILLER_13_69
*112 FILLER_13_72
*113 FILLER_14_107
*114 FILLER_14_113
*115 FILLER_14_145
*116 FILLER_14_147
*117 FILLER_14_18
*118 FILLER_14_34
*119 FILLER_14_37
*120 FILLER_14_67
*121 FILLER_14_98
*122 FILLER_15_127
*123 FILLER_15_135
*124 FILLER_15_139
*125 FILLER_15_142
*126 FILLER_15_146
*127 FILLER_15_18
*128 FILLER_15_34
*129 FILLER_15_38
*130 FILLER_15_66
*131 FILLER_15_72
*132 FILLER_15_74
*133 FILLER_15_84
*134 FILLER_15_92
*135 FILLER_15_96
*136 FILLER_16_100
*137 FILLER_16_104
*138 FILLER_16_107
*139 FILLER_16_139
*140 FILLER_16_155
*141 FILLER_16_163
*142 FILLER_16_18
*143 FILLER_16_34
*144 FILLER_16_37
*145 FILLER_16_45
*146 FILLER_16_47
*147 FILLER_16_60
*148 FILLER_16_92
*149 FILLER_17_136
*150 FILLER_17_142
*151 FILLER_17_158
*152 FILLER_17_162
*153 FILLER_17_2
*154 FILLER_17_66
*155 FILLER_17_72
*156 FILLER_18_101
*157 FILLER_18_107
*158 FILLER_18_139
*159 FILLER_18_155
*160 FILLER_18_163
*161 FILLER_18_2
*162 FILLER_18_34
*163 FILLER_18_37
*164 FILLER_19_136
*165 FILLER_19_142
*166 FILLER_19_158
*167 FILLER_19_162
*168 FILLER_19_2
*169 FILLER_19_66
*170 FILLER_19_72
*171 FILLER_1_125
*172 FILLER_1_133
*173 FILLER_1_137
*174 FILLER_1_139
*175 FILLER_1_142
*176 FILLER_1_158
*177 FILLER_1_162
*178 FILLER_1_2
*179 FILLER_1_66
*180 FILLER_1_72
*181 FILLER_1_76
*182 FILLER_1_93
*183 FILLER_20_101
*184 FILLER_20_107
*185 FILLER_20_139
*186 FILLER_20_155
*187 FILLER_20_163
*188 FILLER_20_2
*189 FILLER_20_34
*190 FILLER_20_37
*191 FILLER_21_136
*192 FILLER_21_142
*193 FILLER_21_158
*194 FILLER_21_162
*195 FILLER_21_2
*196 FILLER_21_66
*197 FILLER_21_72
*198 FILLER_22_104
*199 FILLER_22_138
*200 FILLER_22_154
*201 FILLER_22_162
*202 FILLER_22_2
*203 FILLER_22_36
*204 FILLER_2_101
*205 FILLER_2_107
*206 FILLER_2_139
*207 FILLER_2_155
*208 FILLER_2_163
*209 FILLER_2_2
*210 FILLER_2_34
*211 FILLER_2_37
*212 FILLER_3_136
*213 FILLER_3_142
*214 FILLER_3_158
*215 FILLER_3_162
*216 FILLER_3_2
*217 FILLER_3_66
*218 FILLER_3_72
*219 FILLER_4_101
*220 FILLER_4_107
*221 FILLER_4_139
*222 FILLER_4_155
*223 FILLER_4_163
*224 FILLER_4_2
*225 FILLER_4_34
*226 FILLER_4_37
*227 FILLER_5_136
*228 FILLER_5_142
*229 FILLER_5_158
*230 FILLER_5_162
*231 FILLER_5_2
*232 FILLER_5_66
*233 FILLER_5_72
*234 FILLER_6_102
*235 FILLER_6_104
*236 FILLER_6_107
*237 FILLER_6_139
*238 FILLER_6_155
*239 FILLER_6_163
*240 FILLER_6_2
*241 FILLER_6_34
*242 FILLER_6_37
*243 FILLER_6_53
*244 FILLER_6_61
*245 FILLER_6_94
*246 FILLER_7_131
*247 FILLER_7_139
*248 FILLER_7_142
*249 FILLER_7_158
*250 FILLER_7_162
*251 FILLER_7_2
*252 FILLER_7_66
*253 FILLER_7_72
*254 FILLER_7_85
*255 FILLER_7_90
*256 FILLER_8_103
*257 FILLER_8_136
*258 FILLER_8_144
*259 FILLER_8_2
*260 FILLER_8_34
*261 FILLER_8_37
*262 FILLER_8_45
*263 FILLER_8_78
*264 FILLER_9_122
*265 FILLER_9_138
*266 FILLER_9_142
*267 FILLER_9_146
*268 FILLER_9_2
*269 FILLER_9_34
*270 FILLER_9_50
*271 FILLER_9_52
*272 FILLER_9_69
*273 FILLER_9_72
*274 FILLER_9_76
*275 FILLER_9_85
*276 PHY_EDGE_ROW_0_Left_23
*277 PHY_EDGE_ROW_0_Right_0
*278 PHY_EDGE_ROW_10_Left_33
*279 PHY_EDGE_ROW_10_Right_10
*280 PHY_EDGE_ROW_11_Left_34
*281 PHY_EDGE_ROW_11_Right_11
*282 PHY_EDGE_ROW_12_Left_35
*283 PHY_EDGE_ROW_12_Right_12
*284 PHY_EDGE_ROW_13_Left_36
*285 PHY_EDGE_ROW_13_Right_13
*286 PHY_EDGE_ROW_14_Left_37
*287 PHY_EDGE_ROW_14_Right_14
*288 PHY_EDGE_ROW_15_Left_38
*289 PHY_EDGE_ROW_15_Right_15
*290 PHY_EDGE_ROW_16_Left_39
*291 PHY_EDGE_ROW_16_Right_16
*292 PHY_EDGE_ROW_17_Left_40
*293 PHY_EDGE_ROW_17_Right_17
*294 PHY_EDGE_ROW_18_Left_41
*295 PHY_EDGE_ROW_18_Right_18
*296 PHY_EDGE_ROW_19_Left_42
*297 PHY_EDGE_ROW_19_Right_19
*298 PHY_EDGE_ROW_1_Left_24
*299 PHY_EDGE_ROW_1_Right_1
*300 PHY_EDGE_ROW_20_Left_43
*301 PHY_EDGE_ROW_20_Right_20
*302 PHY_EDGE_ROW_21_Left_44
*303 PHY_EDGE_ROW_21_Right_21
*304 PHY_EDGE_ROW_22_Left_45
*305 PHY_EDGE_ROW_22_Right_22
*306 PHY_EDGE_ROW_2_Left_25
*307 PHY_EDGE_ROW_2_Right_2
*308 PHY_EDGE_ROW_3_Left_26
*309 PHY_EDGE_ROW_3_Right_3
*310 PHY_EDGE_ROW_4_Left_27
*311 PHY_EDGE_ROW_4_Right_4
*312 PHY_EDGE_ROW_5_Left_28
*313 PHY_EDGE_ROW_5_Right_5
*314 PHY_EDGE_ROW_6_Left_29
*315 PHY_EDGE_ROW_6_Right_6
*316 PHY_EDGE_ROW_7_Left_30
*317 PHY_EDGE_ROW_7_Right_7
*318 PHY_EDGE_ROW_8_Left_31
*319 PHY_EDGE_ROW_8_Right_8
*320 PHY_EDGE_ROW_9_Left_32
*321 PHY_EDGE_ROW_9_Right_9
*322 TAP_TAPCELL_ROW_0_46
*323 TAP_TAPCELL_ROW_0_47
*324 TAP_TAPCELL_ROW_0_48
*325 TAP_TAPCELL_ROW_0_49
*326 TAP_TAPCELL_ROW_10_68
*327 TAP_TAPCELL_ROW_10_69
*328 TAP_TAPCELL_ROW_11_70
*329 TAP_TAPCELL_ROW_11_71
*330 TAP_TAPCELL_ROW_12_72
*331 TAP_TAPCELL_ROW_12_73
*332 TAP_TAPCELL_ROW_13_74
*333 TAP_TAPCELL_ROW_13_75
*334 TAP_TAPCELL_ROW_14_76
*335 TAP_TAPCELL_ROW_14_77
*336 TAP_TAPCELL_ROW_15_78
*337 TAP_TAPCELL_ROW_15_79
*338 TAP_TAPCELL_ROW_16_80
*339 TAP_TAPCELL_ROW_16_81
*340 TAP_TAPCELL_ROW_17_82
*341 TAP_TAPCELL_ROW_17_83
*342 TAP_TAPCELL_ROW_18_84
*343 TAP_TAPCELL_ROW_18_85
*344 TAP_TAPCELL_ROW_19_86
*345 TAP_TAPCELL_ROW_19_87
*346 TAP_TAPCELL_ROW_1_50
*347 TAP_TAPCELL_ROW_1_51
*348 TAP_TAPCELL_ROW_20_88
*349 TAP_TAPCELL_ROW_20_89
*350 TAP_TAPCELL_ROW_21_90
*351 TAP_TAPCELL_ROW_21_91
*352 TAP_TAPCELL_ROW_22_92
*353 TAP_TAPCELL_ROW_22_93
*354 TAP_TAPCELL_ROW_22_94
*355 TAP_TAPCELL_ROW_22_95
*356 TAP_TAPCELL_ROW_2_52
*357 TAP_TAPCELL_ROW_2_53
*358 TAP_TAPCELL_ROW_3_54
*359 TAP_TAPCELL_ROW_3_55
*360 TAP_TAPCELL_ROW_4_56
*361 TAP_TAPCELL_ROW_4_57
*362 TAP_TAPCELL_ROW_5_58
*363 TAP_TAPCELL_ROW_5_59
*364 TAP_TAPCELL_ROW_6_60
*365 TAP_TAPCELL_ROW_6_61
*366 TAP_TAPCELL_ROW_7_62
*367 TAP_TAPCELL_ROW_7_63
*368 TAP_TAPCELL_ROW_8_64
*369 TAP_TAPCELL_ROW_8_65
*370 TAP_TAPCELL_ROW_9_66
*371 TAP_TAPCELL_ROW_9_67
*372 _34_
*373 _35_
*374 _36_
*375 _37_
*376 _38_
*377 _39_
*378 _40_
*379 _41_
*380 _42_
*381 _43_
*382 _44_
*383 _45_
*384 _46_
*385 _47_
*386 _48_
*387 _49_
*388 _50_
*389 _51_
*390 _52_
*391 _53_
*392 _54_
*393 _55_
*394 _56_
*395 _57_
*396 _58_
*397 _59_
*398 _60_
*399 _61_
*400 _62_
*401 _63_
*402 _64_
*403 _65_
*404 _66_
*405 _67_
*406 _68_
*407 _69_
*408 _70_
*409 _71_
*410 _72_
*411 _73_
*412 _74_
*413 _75_
*414 _76_
*415 clkbuf_0_clk_i
*416 clkbuf_1_0__f_clk_i
*417 clkbuf_1_1__f_clk_i
*418 clkload0
*419 input1
*420 input2
*421 output10
*422 output11
*423 output3
*424 output4
*425 output5
*426 output6
*427 output7
*428 output8
*429 output9

*PORTS
clk_i I
count_o[0] O
count_o[1] O
count_o[2] O
count_o[3] O
count_o[4] O
count_o[5] O
count_o[6] O
count_o[7] O
en_i I
ovf_o O
rst_ni I

*D_NET *3 0.00616827
*CONN
*P clk_i I
*I *415:I I *D gf180mcu_fd_sc_mcu7t5v0__clkbuf_16
*CAP
1 clk_i 0.00183466
2 *415:I 0.000152054
3 *3:10 0.00198671
4 *415:I *410:D 0
5 *415:I *55:94 4.88119e-05
6 *3:10 count_o[1] 0.00016805
7 *3:10 *379:A1 3.46053e-05
8 *3:10 *380:A1 3.95521e-05
9 *3:10 *380:A2 3.73627e-05
10 *3:10 *386:A3 0
11 *3:10 *386:A4 4.94075e-05
12 *3:10 *406:CLK 5.21546e-05
13 *3:10 *407:CLK 7.594e-05
14 *3:10 *424:I 0
15 *3:10 *425:I 0
16 *3:10 *52:16 0
17 *3:10 *52:33 5.59457e-05
18 *3:10 *52:39 0.000113362
19 *3:10 *55:14 0.000367382
20 *3:10 *55:94 9.11015e-05
21 *3:10 *56:16 0.000124452
22 *3:10 *56:44 0.000161784
23 *3:10 *56:46 7.95952e-05
24 *3:10 *57:19 0
25 *3:10 *58:23 0.000104577
26 *3:10 *58:36 0.000590754
*RES
1 clk_i *3:10 20.0719 
2 *3:10 *415:I 5.61014 
*END

*D_NET *4 0.000677298
*CONN
*P count_o[0] O
*I *423:Z O *D gf180mcu_fd_sc_mcu7t5v0__dlyb_1
*CAP
1 count_o[0] 0.000337363
2 *423:Z 0.000337363
3 count_o[0] *52:10 2.57058e-06
*RES
1 *423:Z count_o[0] 6.67686 
*END

*D_NET *5 0.00159963
*CONN
*P count_o[1] O
*I *424:Z O *D gf180mcu_fd_sc_mcu7t5v0__dlyb_1
*CAP
1 count_o[1] 0.000375662
2 *424:Z 0.000375662
3 count_o[1] *420:I 0.000680261
4 *3:10 count_o[1] 0.00016805
*RES
1 *424:Z count_o[1] 12.762 
*END

*D_NET *6 0.000878755
*CONN
*P count_o[2] O
*I *425:Z O *D gf180mcu_fd_sc_mcu7t5v0__dlyb_1
*CAP
1 count_o[2] 0.000370326
2 *425:Z 0.000370326
3 count_o[2] *420:I 0.000138103
*RES
1 *425:Z count_o[2] 11.546 
*END

*D_NET *7 0.0009215
*CONN
*P count_o[3] O
*I *426:Z O *D gf180mcu_fd_sc_mcu7t5v0__dlyb_1
*CAP
1 count_o[3] 0.00046075
2 *426:Z 0.00046075
3 count_o[3] count_o[4] 0
*RES
1 *426:Z count_o[3] 7.35 
*END

*D_NET *8 0.000652103
*CONN
*P count_o[4] O
*I *427:Z O *D gf180mcu_fd_sc_mcu7t5v0__dlyb_1
*CAP
1 count_o[4] 0.000326052
2 *427:Z 0.000326052
3 count_o[4] *427:I 0
4 count_o[3] count_o[4] 0
*RES
1 *427:Z count_o[4] 6.59 
*END

*D_NET *9 0.000619161
*CONN
*P count_o[5] O
*I *428:Z O *D gf180mcu_fd_sc_mcu7t5v0__dlyb_1
*CAP
1 count_o[5] 0.000156396
2 *428:Z 0.000156396
3 count_o[5] count_o[6] 0.000306369
*RES
1 *428:Z count_o[5] 10.7209 
*END

*D_NET *10 0.000852799
*CONN
*P count_o[6] O
*I *429:Z O *D gf180mcu_fd_sc_mcu7t5v0__dlyb_1
*CAP
1 count_o[6] 0.000273215
2 *429:Z 0.000273215
3 count_o[5] count_o[6] 0.000306369
*RES
1 *429:Z count_o[6] 11.3289 
*END

*D_NET *11 0.000852344
*CONN
*P count_o[7] O
*I *421:Z O *D gf180mcu_fd_sc_mcu7t5v0__dlyb_1
*CAP
1 count_o[7] 0.000311562
2 *421:Z 0.000311562
3 count_o[7] ovf_o 0.00022922
*RES
1 *421:Z count_o[7] 11.3289 
*END

*D_NET *12 0.000698966
*CONN
*P en_i I
*I *419:I I *D gf180mcu_fd_sc_mcu7t5v0__dlyb_1
*CAP
1 en_i 0.000349483
2 *419:I 0.000349483
3 *419:I *52:10 0
*RES
1 en_i *419:I 6.75286 
*END

*D_NET *13 0.000937495
*CONN
*P ovf_o O
*I *422:Z O *D gf180mcu_fd_sc_mcu7t5v0__dlyb_1
*CAP
1 ovf_o 0.000354137
2 *422:Z 0.000354137
3 count_o[7] ovf_o 0.00022922
*RES
1 *422:Z ovf_o 11.6329 
*END

*D_NET *14 0.00132532
*CONN
*P rst_ni I
*I *420:I I *D gf180mcu_fd_sc_mcu7t5v0__dlyb_1
*CAP
1 rst_ni 0.000253477
2 *420:I 0.000253477
3 count_o[1] *420:I 0.000680261
4 count_o[2] *420:I 0.000138103
*RES
1 rst_ni *420:I 11.85 
*END

*D_NET *15 0.00100298
*CONN
*I *406:D I *D gf180mcu_fd_sc_mcu7t5v0__dffq_1
*I *381:ZN O *D gf180mcu_fd_sc_mcu7t5v0__aoi22_1
*CAP
1 *406:D 0.000103114
2 *381:ZN 0.000103114
3 *406:D *381:B1 0.000379274
4 *406:D *381:B2 0.000379274
5 *406:D *52:16 3.82054e-05
*RES
1 *381:ZN *406:D 10.672 
*END

*D_NET *16 0.000461492
*CONN
*I *407:D I *D gf180mcu_fd_sc_mcu7t5v0__dffq_1
*I *385:ZN O *D gf180mcu_fd_sc_mcu7t5v0__nor2_1
*CAP
1 *407:D 9.35537e-05
2 *385:ZN 9.35537e-05
3 *407:D *389:A1 0.00026286
4 *407:D *389:A2 1.15244e-05
5 *407:D *58:23 0
*RES
1 *385:ZN *407:D 9.836 
*END

*D_NET *17 0.00139898
*CONN
*I *408:D I *D gf180mcu_fd_sc_mcu7t5v0__dffq_1
*I *389:ZN O *D gf180mcu_fd_sc_mcu7t5v0__aoi21_1
*CAP
1 *408:D 0.00018673
2 *389:ZN 0.00018673
3 *408:D *389:A1 0.000314174
4 *408:D *389:A2 0.000673025
5 *408:D *406:CLK 0
6 *408:D *55:33 3.83192e-05
*RES
1 *389:ZN *408:D 20.432 
*END

*D_NET *18 0.000406448
*CONN
*I *409:D I *D gf180mcu_fd_sc_mcu7t5v0__dffq_1
*I *391:ZN O *D gf180mcu_fd_sc_mcu7t5v0__aoi21_1
*CAP
1 *409:D 0.000203224
2 *391:ZN 0.000203224
3 *409:D *388:A1 0
4 *409:D *28:18 0
*RES
1 *391:ZN *409:D 10.292 
*END

*D_NET *19 0.00201093
*CONN
*I *410:D I *D gf180mcu_fd_sc_mcu7t5v0__dffq_1
*I *394:ZN O *D gf180mcu_fd_sc_mcu7t5v0__nor3_1
*CAP
1 *410:D 0.000623812
2 *394:ZN 0.000623812
3 *410:D *393:A3 8.89016e-05
4 *410:D *394:A2 0
5 *410:D *396:A4 2.57058e-06
6 *410:D *410:CLK 0
7 *410:D *28:8 0.000147305
8 *410:D *36:12 2.25184e-05
9 *410:D *37:47 0.000255722
10 *410:D *50:45 0
11 *410:D *59:8 0.000177055
12 *410:D *59:14 6.92347e-05
13 *415:I *410:D 0
*RES
1 *394:ZN *410:D 13.864 
*END

*D_NET *20 0.00125491
*CONN
*I *411:D I *D gf180mcu_fd_sc_mcu7t5v0__dffq_1
*I *397:Z O *D gf180mcu_fd_sc_mcu7t5v0__and3_1
*CAP
1 *411:D 0.000219805
2 *397:Z 0.000219805
3 *411:D *396:A1 1.5961e-05
4 *411:D *397:A2 2.98535e-05
5 *411:D *398:A3 6.99987e-05
6 *411:D *400:A2 0.000265225
7 *411:D *400:C 0
8 *411:D *61:12 0.000434262
*RES
1 *397:Z *411:D 20.888 
*END

*D_NET *21 0.000645954
*CONN
*I *412:D I *D gf180mcu_fd_sc_mcu7t5v0__dffq_1
*I *400:ZN O *D gf180mcu_fd_sc_mcu7t5v0__aoi211_1
*CAP
1 *412:D 0.000262468
2 *400:ZN 0.000262468
3 *412:D *400:A1 8.8586e-05
4 *412:D *61:12 3.24312e-05
*RES
1 *400:ZN *412:D 19.748 
*END

*D_NET *22 0.000539134
*CONN
*I *413:D I *D gf180mcu_fd_sc_mcu7t5v0__dffq_1
*I *403:Z O *D gf180mcu_fd_sc_mcu7t5v0__and3_1
*CAP
1 *413:D 0.000214915
2 *403:Z 0.000214915
3 *413:D *414:D 0
4 *413:D *51:16 0.000109303
*RES
1 *403:Z *413:D 10.52 
*END

*D_NET *23 0.00152166
*CONN
*I *414:D I *D gf180mcu_fd_sc_mcu7t5v0__dffq_1
*I *405:ZN O *D gf180mcu_fd_sc_mcu7t5v0__oai21_1
*CAP
1 *414:D 0.000485871
2 *405:ZN 0.000485871
3 *414:D *404:A1 0
4 *414:D *404:A2 0
5 *414:D *405:A1 0.000255714
6 *414:D *405:B 4.56273e-05
7 *414:D *414:CLK 0
8 *414:D *24:10 0.000248576
9 *414:D *51:16 0
10 *413:D *414:D 0
*RES
1 *405:ZN *414:D 12.496 
*END

*D_NET *24 0.00395354
*CONN
*I *401:B I *D gf180mcu_fd_sc_mcu7t5v0__oai31_1
*I *402:A1 I *D gf180mcu_fd_sc_mcu7t5v0__or4_1
*I *372:ZN O *D gf180mcu_fd_sc_mcu7t5v0__clkinv_1
*CAP
1 *401:B 0.000199043
2 *402:A1 7.66146e-05
3 *372:ZN 0.000229012
4 *24:10 0.00050467
5 *401:B *397:A1 0.000702313
6 *401:B *400:C 9.88736e-06
7 *401:B *402:A3 4.97712e-06
8 *401:B *402:A4 0.00061122
9 *401:B *414:CLK 5.76063e-06
10 *401:B *416:I 4.78648e-05
11 *401:B *51:16 9.61205e-06
12 *401:B *55:72 0.000400636
13 *402:A1 *404:A2 0.000115164
14 *402:A1 *55:72 0.000215564
15 *24:10 *404:A2 9.15568e-05
16 *24:10 *405:A1 0.000262973
17 *24:10 *405:B 0.000195719
18 *24:10 *55:72 2.23783e-05
19 *414:D *24:10 0.000248576
*RES
1 *372:ZN *24:10 12.04 
2 *24:10 *402:A1 10.14 
3 *24:10 *401:B 12.344 
*END

*D_NET *25 0.00131771
*CONN
*I *400:A1 I *D gf180mcu_fd_sc_mcu7t5v0__aoi211_1
*I *373:ZN O *D gf180mcu_fd_sc_mcu7t5v0__clkinv_1
*CAP
1 *400:A1 0.000309393
2 *373:ZN 0.000309393
3 *400:A1 *395:A1 6.89444e-05
4 *400:A1 *396:A1 8.94116e-05
5 *400:A1 *400:A2 0.000291702
6 *400:A1 *412:CLK 3.33183e-05
7 *400:A1 *51:34 5.19077e-05
8 *400:A1 *61:12 7.50546e-05
9 *412:D *400:A1 8.8586e-05
*RES
1 *373:ZN *400:A1 20.964 
*END

*D_NET *26 0.000159247
*CONN
*I *395:B I *D gf180mcu_fd_sc_mcu7t5v0__oai31_1
*I *374:ZN O *D gf180mcu_fd_sc_mcu7t5v0__clkinv_1
*CAP
1 *395:B 7.74918e-05
2 *374:ZN 7.74918e-05
3 *395:B *400:A2 4.26315e-06
*RES
1 *374:ZN *395:B 9.532 
*END

*D_NET *27 0.00167328
*CONN
*I *395:A1 I *D gf180mcu_fd_sc_mcu7t5v0__oai31_1
*I *393:A1 I *D gf180mcu_fd_sc_mcu7t5v0__nor3_1
*I *375:ZN O *D gf180mcu_fd_sc_mcu7t5v0__clkinv_1
*CAP
1 *395:A1 0.000262599
2 *393:A1 0.00010645
3 *375:ZN 3.0956e-05
4 *27:8 0.000400005
5 *393:A1 *426:I 9.12241e-05
6 *393:A1 *28:51 0.000197957
7 *395:A1 *396:A1 8.89201e-06
8 *395:A1 *400:A2 0
9 *395:A1 *400:C 0.000372137
10 *395:A1 *28:51 0.000134113
11 *400:A1 *395:A1 6.89444e-05
*RES
1 *375:ZN *27:8 9.228 
2 *27:8 *393:A1 9.988 
3 *27:8 *395:A1 11.128 
*END

*D_NET *28 0.00905012
*CONN
*I *401:A1 I *D gf180mcu_fd_sc_mcu7t5v0__oai31_1
*I *402:A2 I *D gf180mcu_fd_sc_mcu7t5v0__or4_1
*I *399:A1 I *D gf180mcu_fd_sc_mcu7t5v0__nor3_1
*I *395:A2 I *D gf180mcu_fd_sc_mcu7t5v0__oai31_1
*I *393:A2 I *D gf180mcu_fd_sc_mcu7t5v0__nor3_1
*I *390:A1 I *D gf180mcu_fd_sc_mcu7t5v0__oai21_1
*I *391:A1 I *D gf180mcu_fd_sc_mcu7t5v0__aoi21_1
*I *376:ZN O *D gf180mcu_fd_sc_mcu7t5v0__clkinv_1
*CAP
1 *401:A1 0.000178951
2 *402:A2 0.000200487
3 *399:A1 3.28034e-05
4 *395:A2 0
5 *393:A2 1.78845e-05
6 *390:A1 0
7 *391:A1 0.000147225
8 *376:ZN 5.46036e-06
9 *28:66 0.000421416
10 *28:60 0.000424715
11 *28:51 0.000286482
12 *28:36 0.000418851
13 *28:18 0.000684654
14 *28:8 0.000715013
15 *391:A1 *388:A1 0.000406043
16 *391:A1 *391:A2 3.19219e-05
17 *391:A1 *409:CLK 0
18 *393:A2 *393:A3 4.27813e-05
19 *393:A2 *59:18 0.000147305
20 *401:A1 *397:A1 0.00026286
21 *401:A1 *398:A3 0.000235816
22 *401:A1 *44:14 1.78185e-05
23 *401:A1 *51:16 2.17248e-05
24 *402:A2 *402:A3 0.000968824
25 *402:A2 *402:A4 0.000187408
26 *402:A2 *416:I 6.05076e-05
27 *402:A2 *30:8 8.81496e-06
28 *402:A2 *37:84 0.000142499
29 *28:8 *59:8 0.000147305
30 *28:18 *409:CLK 3.54426e-05
31 *28:18 *410:CLK 8.50254e-05
32 *28:18 *50:45 0.000184378
33 *28:36 *59:14 5.38114e-05
34 *28:51 *396:A1 9.15434e-05
35 *28:51 *400:B 0.000431543
36 *28:51 *400:C 0.000191711
37 *28:51 *426:I 7.33934e-06
38 *28:51 *59:14 7.33578e-06
39 *28:60 *400:B 0.000329327
40 *28:60 *400:C 0.000151408
41 *28:66 *394:A3 2.48239e-05
42 *28:66 *395:A3 7.83779e-05
43 *28:66 *398:A3 0.000260709
44 *28:66 *400:C 0
45 *28:66 *30:8 2.9378e-06
46 *28:66 *37:62 8.15645e-05
47 *28:66 *37:73 0.000291377
48 *28:66 *37:84 4.24811e-05
49 *28:66 *44:14 4.03922e-06
50 *393:A1 *28:51 0.000197957
51 *395:A1 *28:51 0.000134113
52 *409:D *28:18 0
53 *410:D *28:8 0.000147305
*RES
1 *376:ZN *28:8 9.38 
2 *28:8 *28:18 8.148 
3 *28:18 *391:A1 14.64 
4 *28:18 *390:A1 4.5 
5 *28:8 *28:36 0.988 
6 *28:36 *393:A2 9.38 
7 *28:36 *28:51 7.54 
8 *28:51 *395:A2 4.5 
9 *28:51 *28:60 5.488 
10 *28:60 *28:66 6.476 
11 *28:66 *399:A1 4.728 
12 *28:66 *402:A2 7.616 
13 *28:60 *401:A1 10.596 
*END

*D_NET *29 0.00205277
*CONN
*I *389:A1 I *D gf180mcu_fd_sc_mcu7t5v0__aoi21_1
*I *377:ZN O *D gf180mcu_fd_sc_mcu7t5v0__clkinv_1
*CAP
1 *389:A1 0.000727612
2 *377:ZN 0.000727612
3 *389:A1 *389:A2 2.05156e-05
4 *389:A1 *58:6 0
5 *389:A1 *58:23 0
6 *407:D *389:A1 0.00026286
7 *408:D *389:A1 0.000314174
*RES
1 *377:ZN *389:A1 14.472 
*END

*D_NET *30 0.00620966
*CONN
*I *405:A1 I *D gf180mcu_fd_sc_mcu7t5v0__oai21_1
*I *400:C I *D gf180mcu_fd_sc_mcu7t5v0__aoi211_1
*I *394:A1 I *D gf180mcu_fd_sc_mcu7t5v0__nor3_1
*I *378:ZN O *D gf180mcu_fd_sc_mcu7t5v0__clkinv_1
*CAP
1 *405:A1 0.000449347
2 *400:C 0.000524673
3 *394:A1 0.000132668
4 *378:ZN 0
5 *30:8 0.00104638
6 *30:4 0.000838383
7 *394:A1 *37:62 0
8 *400:C *397:A1 0.000231428
9 *400:C *397:A2 0.000131633
10 *400:C *400:A2 0
11 *400:C *400:B 0.000118506
12 *400:C *401:A2 7.6687e-05
13 *400:C *402:A3 5.59457e-05
14 *400:C *402:A4 5.97012e-05
15 *400:C *37:62 0
16 *400:C *37:73 2.17248e-05
17 *400:C *44:14 6.54978e-05
18 *405:A1 *402:A4 0
19 *405:A1 *405:A2 0.000126113
20 *405:A1 *405:B 0.000141888
21 *405:A1 *51:16 0
22 *405:A1 *55:59 8.84331e-05
23 *405:A1 *55:72 0.000655318
24 *30:8 *402:A3 0.000189755
25 *395:A1 *400:C 0.000372137
26 *401:B *400:C 9.88736e-06
27 *402:A2 *30:8 8.81496e-06
28 *411:D *400:C 0
29 *414:D *405:A1 0.000255714
30 *24:10 *405:A1 0.000262973
31 *28:51 *400:C 0.000191711
32 *28:60 *400:C 0.000151408
33 *28:66 *400:C 0
34 *28:66 *30:8 2.9378e-06
*RES
1 *378:ZN *30:4 4.5 
2 *30:4 *30:8 7.16 
3 *30:8 *394:A1 9.836 
4 *30:8 *400:C 14.32 
5 *30:4 *405:A1 18.364 
*END

*D_NET *31 0.0025467
*CONN
*I *381:B1 I *D gf180mcu_fd_sc_mcu7t5v0__aoi22_1
*I *404:A2 I *D gf180mcu_fd_sc_mcu7t5v0__nand2_1
*I *379:ZN O *D gf180mcu_fd_sc_mcu7t5v0__nand2_1
*CAP
1 *381:B1 7.18582e-05
2 *404:A2 0.000407676
3 *379:ZN 6.06792e-05
4 *31:6 0.000540213
5 *381:B1 *381:B2 6.48288e-05
6 *381:B1 *52:16 0.000224296
7 *404:A2 *379:A1 0.000142237
8 *404:A2 *404:A1 3.08902e-05
9 *404:A2 *414:CLK 8.55327e-05
10 *404:A2 *52:16 0.000151957
11 *404:A2 *55:48 3.50638e-06
12 *404:A2 *55:59 2.43241e-05
13 *404:A2 *55:72 1.70277e-05
14 *404:A2 *56:10 0
15 *404:A2 *56:12 0
16 *31:6 *379:A1 5.4883e-05
17 *31:6 *381:B2 8.07935e-05
18 *402:A1 *404:A2 0.000115164
19 *406:D *381:B1 0.000379274
20 *414:D *404:A2 0
21 *24:10 *404:A2 9.15568e-05
*RES
1 *379:ZN *31:6 5.032 
2 *31:6 *404:A2 17.3 
3 *31:6 *381:B1 5.944 
*END

*D_NET *32 0.00146192
*CONN
*I *381:B2 I *D gf180mcu_fd_sc_mcu7t5v0__aoi22_1
*I *380:ZN O *D gf180mcu_fd_sc_mcu7t5v0__nand2_1
*CAP
1 *381:B2 0.000101972
2 *380:ZN 0.000101972
3 *381:B2 *380:A1 0.00018513
4 *381:B2 *56:16 0.000547949
5 *381:B1 *381:B2 6.48288e-05
6 *406:D *381:B2 0.000379274
7 *31:6 *381:B2 8.07935e-05
*RES
1 *380:ZN *381:B2 11.128 
*END

*D_NET *33 0.00105727
*CONN
*I *385:A1 I *D gf180mcu_fd_sc_mcu7t5v0__nor2_1
*I *382:ZN O *D gf180mcu_fd_sc_mcu7t5v0__aoi21_1
*CAP
1 *385:A1 1.61111e-05
2 *382:ZN 1.61111e-05
3 *385:A1 *55:14 0.000331093
4 *385:A1 *55:33 0.000181432
5 *385:A1 *58:36 0.000512525
*RES
1 *382:ZN *385:A1 19.292 
*END

*D_NET *34 0.00308748
*CONN
*I *384:A2 I *D gf180mcu_fd_sc_mcu7t5v0__nand2_1
*I *389:A2 I *D gf180mcu_fd_sc_mcu7t5v0__aoi21_1
*I *383:ZN O *D gf180mcu_fd_sc_mcu7t5v0__nand3_1
*CAP
1 *384:A2 2.15315e-05
2 *389:A2 0.000481677
3 *383:ZN 3.02548e-05
4 *34:6 0.000533463
5 *384:A2 *382:B 2.23385e-05
6 *384:A2 *383:A1 1.02578e-05
7 *384:A2 *57:25 5.76063e-06
8 *389:A2 *382:A1 1.5015e-05
9 *389:A2 *382:B 3.79613e-05
10 *389:A2 *383:A1 5.61561e-05
11 *389:A2 *384:A1 0.000134636
12 *389:A2 *37:6 3.10417e-05
13 *389:A2 *50:8 0.000787065
14 *389:A2 *52:39 0.000116691
15 *389:A2 *55:33 9.2805e-05
16 *34:6 *382:A1 5.76373e-06
17 *389:A1 *389:A2 2.05156e-05
18 *407:D *389:A2 1.15244e-05
19 *408:D *389:A2 0.000673025
*RES
1 *383:ZN *34:6 4.88 
2 *34:6 *389:A2 9.896 
3 *34:6 *384:A2 4.728 
*END

*D_NET *35 0.000487193
*CONN
*I *385:A2 I *D gf180mcu_fd_sc_mcu7t5v0__nor2_1
*I *384:ZN O *D gf180mcu_fd_sc_mcu7t5v0__nand2_1
*CAP
1 *385:A2 0.000124902
2 *384:ZN 0.000124902
3 *385:A2 *382:B 0.00023739
*RES
1 *384:ZN *385:A2 9.912 
*END

*D_NET *36 0.00248579
*CONN
*I *396:A4 I *D gf180mcu_fd_sc_mcu7t5v0__nand4_1
*I *392:A2 I *D gf180mcu_fd_sc_mcu7t5v0__aoi21_1
*I *386:Z O *D gf180mcu_fd_sc_mcu7t5v0__and4_1
*CAP
1 *396:A4 0.000101803
2 *392:A2 0
3 *386:Z 0.000320364
4 *36:12 0.000422167
5 *396:A4 *392:A1 0.000448201
6 *396:A4 *393:A3 0.000128363
7 *396:A4 *394:A2 1.5015e-05
8 *36:12 *390:B 8.55242e-05
9 *36:12 *37:47 0.00024621
10 *36:12 *37:62 2.95445e-05
11 *36:12 *55:94 0.000663513
12 *410:D *396:A4 2.57058e-06
13 *410:D *36:12 2.25184e-05
*RES
1 *386:Z *36:12 16.844 
2 *36:12 *392:A2 4.5 
3 *36:12 *396:A4 6.02 
*END

*D_NET *37 0.0116628
*CONN
*I *401:A2 I *D gf180mcu_fd_sc_mcu7t5v0__oai31_1
*I *402:A3 I *D gf180mcu_fd_sc_mcu7t5v0__or4_1
*I *399:A2 I *D gf180mcu_fd_sc_mcu7t5v0__nor3_1
*I *395:A3 I *D gf180mcu_fd_sc_mcu7t5v0__oai31_1
*I *393:A3 I *D gf180mcu_fd_sc_mcu7t5v0__nor3_1
*I *390:A2 I *D gf180mcu_fd_sc_mcu7t5v0__oai21_1
*I *391:A2 I *D gf180mcu_fd_sc_mcu7t5v0__aoi21_1
*I *388:A2 I *D gf180mcu_fd_sc_mcu7t5v0__nand2_1
*I *387:ZN O *D gf180mcu_fd_sc_mcu7t5v0__nand4_1
*CAP
1 *401:A2 0.000208387
2 *402:A3 0.000345249
3 *399:A2 0
4 *395:A3 0.000127018
5 *393:A3 0.000259921
6 *390:A2 0
7 *391:A2 0.000196944
8 *388:A2 3.04338e-05
9 *387:ZN 0.000459418
10 *37:84 0.0006049
11 *37:73 7.32767e-05
12 *37:62 0.000436053
13 *37:47 0.000950719
14 *37:17 0.000315987
15 *37:15 0.000593894
16 *37:6 0.000560926
17 *388:A2 *388:A1 5.14116e-06
18 *388:A2 *391:B 0
19 *391:A2 *388:A1 0.000298253
20 *391:A2 *389:B 0
21 *391:A2 *409:CLK 0
22 *393:A3 *392:A1 2.17248e-05
23 *393:A3 *394:A2 2.9378e-06
24 *393:A3 *394:A3 1.34535e-05
25 *393:A3 *59:8 0.000229423
26 *393:A3 *59:18 2.93969e-05
27 *395:A3 *394:A3 0
28 *395:A3 *400:B 0.000203659
29 *395:A3 *43:10 0.000111858
30 *395:A3 *60:21 5.76063e-06
31 *401:A2 *402:A4 3.31572e-05
32 *401:A2 *403:A2 5.4883e-05
33 *401:A2 *405:A2 0
34 *401:A2 *44:14 8.72604e-05
35 *401:A2 *51:16 0.000134622
36 *402:A3 *379:A2 0
37 *402:A3 *416:I 0
38 *37:6 *386:A1 0.00121229
39 *37:6 *386:A2 2.59105e-05
40 *37:6 *387:A1 8.04285e-05
41 *37:6 *389:B 0
42 *37:6 *50:8 2.80216e-05
43 *37:6 *50:45 0
44 *37:6 *52:33 0.000279553
45 *37:6 *55:33 0.000156004
46 *37:15 *391:B 0
47 *37:17 *388:A1 2.40935e-05
48 *37:17 *50:45 5.48455e-05
49 *37:47 *388:A1 2.99905e-05
50 *37:47 *394:A2 0
51 *37:62 *398:A3 0.000120538
52 *37:73 *400:B 0.000193942
53 *37:84 *400:B 5.14116e-06
54 *37:84 *402:A4 0.000248663
55 *389:A2 *37:6 3.10417e-05
56 *391:A1 *391:A2 3.19219e-05
57 *393:A2 *393:A3 4.27813e-05
58 *394:A1 *37:62 0
59 *396:A4 *393:A3 0.000128363
60 *400:C *401:A2 7.6687e-05
61 *400:C *402:A3 5.59457e-05
62 *400:C *37:62 0
63 *400:C *37:73 2.17248e-05
64 *401:B *402:A3 4.97712e-06
65 *402:A2 *402:A3 0.000968824
66 *402:A2 *37:84 0.000142499
67 *410:D *393:A3 8.89016e-05
68 *410:D *37:47 0.000255722
69 *28:66 *395:A3 7.83779e-05
70 *28:66 *37:62 8.15645e-05
71 *28:66 *37:73 0.000291377
72 *28:66 *37:84 4.24811e-05
73 *30:8 *402:A3 0.000189755
74 *36:12 *37:47 0.00024621
75 *36:12 *37:62 2.95445e-05
*RES
1 *387:ZN *37:6 9.592 
2 *37:6 *388:A2 4.728 
3 *37:6 *37:15 0.532 
4 *37:15 *37:17 0.836 
5 *37:17 *391:A2 15.02 
6 *37:17 *390:A2 4.5 
7 *37:15 *37:47 16.768 
8 *37:47 *393:A3 11.736 
9 *37:47 *37:62 6.4 
10 *37:62 *395:A3 5.868 
11 *37:62 *37:73 0.836 
12 *37:73 *399:A2 4.5 
13 *37:73 *37:84 5.412 
14 *37:84 *402:A3 12.876 
15 *37:84 *401:A2 10.824 
*END

*D_NET *38 0.000703096
*CONN
*I *389:B I *D gf180mcu_fd_sc_mcu7t5v0__aoi21_1
*I *388:ZN O *D gf180mcu_fd_sc_mcu7t5v0__nand2_1
*CAP
1 *389:B 0.000351548
2 *388:ZN 0.000351548
3 *391:A2 *389:B 0
4 *37:6 *389:B 0
*RES
1 *388:ZN *389:B 20.128 
*END

*D_NET *39 0.000196821
*CONN
*I *391:B I *D gf180mcu_fd_sc_mcu7t5v0__aoi21_1
*I *390:ZN O *D gf180mcu_fd_sc_mcu7t5v0__oai21_1
*CAP
1 *391:B 9.84103e-05
2 *390:ZN 9.84103e-05
3 *388:A2 *391:B 0
4 *37:15 *391:B 0
*RES
1 *390:ZN *391:B 9.684 
*END

*D_NET *40 0.000569498
*CONN
*I *394:A2 I *D gf180mcu_fd_sc_mcu7t5v0__nor3_1
*I *392:ZN O *D gf180mcu_fd_sc_mcu7t5v0__aoi21_1
*CAP
1 *394:A2 0.000117022
2 *392:ZN 0.000117022
3 *394:A2 *394:A3 0.000317503
4 *393:A3 *394:A2 2.9378e-06
5 *396:A4 *394:A2 1.5015e-05
6 *410:D *394:A2 0
7 *37:47 *394:A2 0
*RES
1 *392:ZN *394:A2 10.064 
*END

*D_NET *41 0.00195846
*CONN
*I *394:A3 I *D gf180mcu_fd_sc_mcu7t5v0__nor3_1
*I *393:ZN O *D gf180mcu_fd_sc_mcu7t5v0__nor3_1
*CAP
1 *394:A3 0.000199286
2 *393:ZN 0.000199286
3 *394:A3 *392:A1 0.000508261
4 *394:A3 *392:B 0
5 *394:A3 *396:A3 1.5015e-05
6 *394:A3 *59:18 0.000109303
7 *394:A3 *60:14 0.00025334
8 *394:A3 *60:21 0.000318185
9 *393:A3 *394:A3 1.34535e-05
10 *394:A2 *394:A3 0.000317503
11 *395:A3 *394:A3 0
12 *28:66 *394:A3 2.48239e-05
*RES
1 *393:ZN *394:A3 12.42 
*END

*D_NET *42 0.000405592
*CONN
*I *397:A2 I *D gf180mcu_fd_sc_mcu7t5v0__and3_1
*I *395:ZN O *D gf180mcu_fd_sc_mcu7t5v0__oai31_1
*CAP
1 *397:A2 8.20351e-05
2 *395:ZN 8.20351e-05
3 *397:A2 *397:A3 7.83779e-05
4 *397:A2 *400:A2 1.65795e-06
5 *400:C *397:A2 0.000131633
6 *411:D *397:A2 2.98535e-05
*RES
1 *395:ZN *397:A2 9.836 
*END

*D_NET *43 0.00298015
*CONN
*I *400:A2 I *D gf180mcu_fd_sc_mcu7t5v0__aoi211_1
*I *397:A3 I *D gf180mcu_fd_sc_mcu7t5v0__and3_1
*I *396:ZN O *D gf180mcu_fd_sc_mcu7t5v0__nand4_1
*CAP
1 *400:A2 0.000341986
2 *397:A3 2.66011e-05
3 *396:ZN 0.000216964
4 *43:10 0.000585551
5 *400:A2 *396:A1 0
6 *400:A2 *398:A3 0.000335667
7 *400:A2 *412:CLK 0
8 *400:A2 *51:34 2.40328e-06
9 *43:10 *396:A1 0
10 *43:10 *398:A3 0.000607573
11 *43:10 *400:B 1.44832e-05
12 *43:10 *60:21 9.58397e-05
13 *395:A1 *400:A2 0
14 *395:A3 *43:10 0.000111858
15 *395:B *400:A2 4.26315e-06
16 *397:A2 *397:A3 7.83779e-05
17 *397:A2 *400:A2 1.65795e-06
18 *400:A1 *400:A2 0.000291702
19 *400:C *400:A2 0
20 *411:D *400:A2 0.000265225
*RES
1 *396:ZN *43:10 11.432 
2 *43:10 *397:A3 9.228 
3 *43:10 *400:A2 12.192 
*END

*D_NET *44 0.00421879
*CONN
*I *401:A3 I *D gf180mcu_fd_sc_mcu7t5v0__oai31_1
*I *402:A4 I *D gf180mcu_fd_sc_mcu7t5v0__or4_1
*I *399:A3 I *D gf180mcu_fd_sc_mcu7t5v0__nor3_1
*I *398:ZN O *D gf180mcu_fd_sc_mcu7t5v0__nand3_1
*CAP
1 *401:A3 0
2 *402:A4 0.000308339
3 *399:A3 0
4 *398:ZN 0.000447561
5 *44:14 0.000518629
6 *44:10 0.000657851
7 *402:A4 *416:I 0.000332998
8 *44:10 *398:A2 9.26705e-05
9 *44:10 *51:10 0.000288951
10 *44:10 *51:16 0.000216296
11 *44:10 *51:32 0
12 *44:10 *51:34 0
13 *44:14 *398:A3 0
14 *44:14 *51:16 4.07337e-05
15 *400:C *402:A4 5.97012e-05
16 *400:C *44:14 6.54978e-05
17 *401:A1 *44:14 1.78185e-05
18 *401:A2 *402:A4 3.31572e-05
19 *401:A2 *44:14 8.72604e-05
20 *401:B *402:A4 0.00061122
21 *402:A2 *402:A4 0.000187408
22 *405:A1 *402:A4 0
23 *28:66 *44:14 4.03922e-06
24 *37:84 *402:A4 0.000248663
*RES
1 *398:ZN *44:10 12.8 
2 *44:10 *44:14 6.096 
3 *44:14 *399:A3 4.5 
4 *44:14 *402:A4 17.148 
5 *44:10 *401:A3 9 
*END

*D_NET *45 0.00215249
*CONN
*I *400:B I *D gf180mcu_fd_sc_mcu7t5v0__aoi211_1
*I *399:ZN O *D gf180mcu_fd_sc_mcu7t5v0__nor3_1
*CAP
1 *400:B 0.000415441
2 *399:ZN 0.000415441
3 *400:B *60:10 2.50029e-05
4 *400:B *60:14 0
5 *400:B *60:21 0
6 *395:A3 *400:B 0.000203659
7 *400:C *400:B 0.000118506
8 *28:51 *400:B 0.000431543
9 *28:60 *400:B 0.000329327
10 *37:73 *400:B 0.000193942
11 *37:84 *400:B 5.14116e-06
12 *43:10 *400:B 1.44832e-05
*RES
1 *399:ZN *400:B 13.408 
*END

*D_NET *46 0.00117408
*CONN
*I *403:A2 I *D gf180mcu_fd_sc_mcu7t5v0__and3_1
*I *401:ZN O *D gf180mcu_fd_sc_mcu7t5v0__oai31_1
*CAP
1 *403:A2 8.53735e-05
2 *401:ZN 8.53735e-05
3 *403:A2 *397:A1 0.000733203
4 *403:A2 *51:16 0.000184362
5 *403:A2 *55:72 3.08902e-05
6 *401:A2 *403:A2 5.4883e-05
*RES