*SPEF "ieee 1481-1999"
*DESIGN "counter_8bit"
*DATE "22:32:10 Monday May 11, 2026"
*VENDOR "The OpenROAD Project"
*PROGRAM "OpenROAD"
*VERSION "dcf36133a369abc8f3c5e5738cd4d82e4903c0e0"
*DESIGN_FLOW "NAME_SCOPE LOCAL" "PIN_CAP NONE"
*DIVIDER /
*DELIMITER :
*BUS_DELIMITER []
*T_UNIT 1 NS
*C_UNIT 1 PF
*R_UNIT 1 OHM
*L_UNIT 1 HENRY

*NAME_MAP
*3 clk_i
*4 count_o[0]
*5 count_o[1]
*6 count_o[2]
*7 count_o[3]
*8 count_o[4]
*9 count_o[5]
*10 count_o[6]
*11 count_o[7]
*12 en_i
*13 ovf_o
*14 rst_ni
*15 _00_
*16 _01_
*17 _02_
*18 _03_
*19 _04_
*20 _05_
*21 _06_
*22 _07_
*23 _08_
*24 _09_
*25 _10_
*26 _11_
*27 _12_
*28 _13_
*29 _14_
*30 _15_
*31 _16_
*32 _17_
*33 _18_
*34 _19_
*35 _20_
*36 _21_
*37 _22_
*38 _23_
*39 _24_
*40 _25_
*41 _26_
*42 _27_
*43 _28_
*44 _29_
*45 _30_
*46 _31_
*47 _32_
*48 _33_
*49 clknet_0_clk_i
*50 clknet_1_0__leaf_clk_i
*51 clknet_1_1__leaf_clk_i
*52 net1
*53 net10
*54 net11
*55 net2
*56 net3
*57 net4
*58 net5
*59 net6
*60 net7
*61 net8
*62 net9
*63 FILLER_0_104
*64 FILLER_0_112
*65 FILLER_0_116
*66 FILLER_0_118
*67 FILLER_0_2
*68 FILLER_0_36
*69 FILLER_0_70
*70 FILLER_10_102
*71 FILLER_10_104
*72 FILLER_10_107
*73 FILLER_10_115
*74 FILLER_10_23
*75 FILLER_10_37
*76 FILLER_11_87
*77 FILLER_12_107
*78 FILLER_12_115
*79 FILLER_12_2
*80 FILLER_12_32
*81 FILLER_12_34
*82 FILLER_12_47
*83 FILLER_12_51
*84 FILLER_12_89
*85 FILLER_13_104
*86 FILLER_13_112
*87 FILLER_13_116
*88 FILLER_13_118
*89 FILLER_13_24
*90 FILLER_13_56
*91 FILLER_13_64
*92 FILLER_13_68
*93 FILLER_13_72
*94 FILLER_14_101
*95 FILLER_14_107
*96 FILLER_14_115
*97 FILLER_14_18
*98 FILLER_14_34
*99 FILLER_14_37
*100 FILLER_15_104
*101 FILLER_15_112
*102 FILLER_15_116
*103 FILLER_15_118
*104 FILLER_15_2
*105 FILLER_15_66
*106 FILLER_15_72
*107 FILLER_16_101
*108 FILLER_16_104
*109 FILLER_16_112
*110 FILLER_16_116
*111 FILLER_16_118
*112 FILLER_16_2
*113 FILLER_16_36
*114 FILLER_16_70
*115 FILLER_16_74
*116 FILLER_16_76
*117 FILLER_16_93
*118 FILLER_1_104
*119 FILLER_1_112
*120 FILLER_1_116
*121 FILLER_1_118
*122 FILLER_1_2
*123 FILLER_1_34
*124 FILLER_1_50
*125 FILLER_1_67
*126 FILLER_1_69
*127 FILLER_1_72
*128 FILLER_2_104
*129 FILLER_2_107
*130 FILLER_2_115
*131 FILLER_2_2
*132 FILLER_2_34
*133 FILLER_2_37
*134 FILLER_2_45
*135 FILLER_2_49
*136 FILLER_2_80
*137 FILLER_2_96
*138 FILLER_3_104
*139 FILLER_3_112
*140 FILLER_3_116
*141 FILLER_3_118
*142 FILLER_3_18
*143 FILLER_3_2
*144 FILLER_3_26
*145 FILLER_3_30
*146 FILLER_3_60
*147 FILLER_3_68
*148 FILLER_3_72
*149 FILLER_4_10
*150 FILLER_4_103
*151 FILLER_4_107
*152 FILLER_4_115
*153 FILLER_4_19
*154 FILLER_4_2
*155 FILLER_4_87
*156 FILLER_5_112
*157 FILLER_5_116
*158 FILLER_5_118
*159 FILLER_5_31
*160 FILLER_5_35
*161 FILLER_5_59
*162 FILLER_5_67
*163 FILLER_5_69
*164 FILLER_5_80
*165 FILLER_6_101
*166 FILLER_6_107
*167 FILLER_6_115
*168 FILLER_6_14
*169 FILLER_6_2
*170 FILLER_6_60
*171 FILLER_7_23
*172 FILLER_7_39
*173 FILLER_7_50
*174 FILLER_7_58
*175 FILLER_7_83
*176 FILLER_7_99
*177 FILLER_8_103
*178 FILLER_8_107
*179 FILLER_8_115
*180 FILLER_8_31
*181 FILLER_8_37
*182 FILLER_8_89
*183 FILLER_8_95
*184 FILLER_9_101
*185 FILLER_9_117
*186 FILLER_9_31
*187 FILLER_9_47
*188 FILLER_9_55
*189 FILLER_9_57
*190 PHY_EDGE_ROW_0_Left_17
*191 PHY_EDGE_ROW_0_Right_0
*192 PHY_EDGE_ROW_10_Left_27
*193 PHY_EDGE_ROW_10_Right_10
*194 PHY_EDGE_ROW_11_Left_28
*195 PHY_EDGE_ROW_11_Right_11
*196 PHY_EDGE_ROW_12_Left_29
*197 PHY_EDGE_ROW_12_Right_12
*198 PHY_EDGE_ROW_13_Left_30
*199 PHY_EDGE_ROW_13_Right_13
*200 PHY_EDGE_ROW_14_Left_31
*201 PHY_EDGE_ROW_14_Right_14
*202 PHY_EDGE_ROW_15_Left_32
*203 PHY_EDGE_ROW_15_Right_15
*204 PHY_EDGE_ROW_16_Left_33
*205 PHY_EDGE_ROW_16_Right_16
*206 PHY_EDGE_ROW_1_Left_18
*207 PHY_EDGE_ROW_1_Right_1
*208 PHY_EDGE_ROW_2_Left_19
*209 PHY_EDGE_ROW_2_Right_2
*210 PHY_EDGE_ROW_3_Left_20
*211 PHY_EDGE_ROW_3_Right_3
*212 PHY_EDGE_ROW_4_Left_21
*213 PHY_EDGE_ROW_4_Right_4
*214 PHY_EDGE_ROW_5_Left_22
*215 PHY_EDGE_ROW_5_Right_5
*216 PHY_EDGE_ROW_6_Left_23
*217 PHY_EDGE_ROW_6_Right_6
*218 PHY_EDGE_ROW_7_Left_24
*219 PHY_EDGE_ROW_7_Right_7
*220 PHY_EDGE_ROW_8_Left_25
*221 PHY_EDGE_ROW_8_Right_8
*222 PHY_EDGE_ROW_9_Left_26
*223 PHY_EDGE_ROW_9_Right_9
*224 TAP_TAPCELL_ROW_0_34
*225 TAP_TAPCELL_ROW_0_35
*226 TAP_TAPCELL_ROW_0_36
*227 TAP_TAPCELL_ROW_10_50
*228 TAP_TAPCELL_ROW_10_51
*229 TAP_TAPCELL_ROW_11_52
*230 TAP_TAPCELL_ROW_12_53
*231 TAP_TAPCELL_ROW_12_54
*232 TAP_TAPCELL_ROW_13_55
*233 TAP_TAPCELL_ROW_14_56
*234 TAP_TAPCELL_ROW_14_57
*235 TAP_TAPCELL_ROW_15_58
*236 TAP_TAPCELL_ROW_16_59
*237 TAP_TAPCELL_ROW_16_60
*238 TAP_TAPCELL_ROW_16_61
*239 TAP_TAPCELL_ROW_1_37
*240 TAP_TAPCELL_ROW_2_38
*241 TAP_TAPCELL_ROW_2_39
*242 TAP_TAPCELL_ROW_3_40
*243 TAP_TAPCELL_ROW_4_41
*244 TAP_TAPCELL_ROW_4_42
*245 TAP_TAPCELL_ROW_5_43
*246 TAP_TAPCELL_ROW_6_44
*247 TAP_TAPCELL_ROW_6_45
*248 TAP_TAPCELL_ROW_7_46
*249 TAP_TAPCELL_ROW_8_47
*250 TAP_TAPCELL_ROW_8_48
*251 TAP_TAPCELL_ROW_9_49
*252 _34_
*253 _35_
*254 _36_
*255 _37_
*256 _38_
*257 _39_
*258 _40_
*259 _41_
*260 _42_
*261 _43_
*262 _44_
*263 _45_
*264 _46_
*265 _47_
*266 _48_
*267 _49_
*268 _50_
*269 _51_
*270 _52_
*271 _53_
*272 _54_
*273 _55_
*274 _56_
*275 _57_
*276 _58_
*277 _59_
*278 _60_
*279 _61_
*280 _62_
*281 _63_
*282 _64_
*283 _65_
*284 _66_
*285 _67_
*286 _68_
*287 _69_
*288 _70_
*289 _71_
*290 _72_
*291 _73_
*292 _74_
*293 _75_
*294 _76_
*295 clkbuf_0_clk_i
*296 clkbuf_1_0__f_clk_i
*297 clkbuf_1_1__f_clk_i
*298 clkload0
*299 input1
*300 input2
*301 output10
*302 output11
*303 output3
*304 output4
*305 output5
*306 output6
*307 output7
*308 output8
*309 output9

*PORTS
clk_i I
count_o[0] O
count_o[1] O
count_o[2] O
count_o[3] O
count_o[4] O
count_o[5] O
count_o[6] O
count_o[7] O
en_i I
ovf_o O
rst_ni I

*D_NET *3 0.00470112
*CONN
*P clk_i I
*I *295:I I *D gf180mcu_fd_sc_mcu7t5v0__clkbuf_16
*CAP
1 clk_i 0.00136998
2 *295:I 7.20198e-05
3 *3:10 0.001442
4 *295:I *30:12 7.03624e-05
5 *295:I *36:8 0
6 *3:10 count_o[0] 3.51391e-05
7 *3:10 count_o[1] 0.000123217
8 *3:10 *258:I 5.49899e-05
9 *3:10 *260:A1 7.93435e-05
10 *3:10 *260:A2 0.000194099
11 *3:10 *261:A1 4.80879e-05
12 *3:10 *263:A2 0.000120402
13 *3:10 *285:A1 4.84531e-05
14 *3:10 *286:D 9.07561e-06
15 *3:10 *287:CLK 2.58211e-05
16 *3:10 *298:I 0
17 *3:10 *299:I 3.50638e-06
18 *3:10 *30:12 0.000158097
19 *3:10 *36:8 0
20 *3:10 *52:36 5.98764e-05
21 *3:10 *55:10 0
22 *3:10 *55:66 0.000221329
23 *3:10 *56:10 4.61791e-05
24 *3:10 *56:14 9.69467e-05
25 *3:10 *57:8 0.000191242
26 *3:10 *57:23 0.000230959
*RES
1 clk_i *3:10 16.1036 
2 *3:10 *295:I 5.09443 
*END

*D_NET *4 0.00158984
*CONN
*P count_o[0] O
*I *303:Z O *D gf180mcu_fd_sc_mcu7t5v0__dlyb_1
*CAP
1 count_o[0] 0.000757401
2 *303:Z 0.000757401
3 count_o[0] count_o[1] 3.99024e-05
4 *3:10 count_o[0] 3.51391e-05
*RES
1 *303:Z count_o[0] 13.902 
*END

*D_NET *5 0.00117003
*CONN
*P count_o[1] O
*I *304:Z O *D gf180mcu_fd_sc_mcu7t5v0__dlyb_1
*CAP
1 count_o[1] 0.000350872
2 *304:Z 0.000350872
3 count_o[1] *299:I 0.000295278
4 count_o[1] *300:I 9.88736e-06
5 count_o[1] *304:I 0
6 count_o[0] count_o[1] 3.99024e-05
7 *3:10 count_o[1] 0.000123217
*RES
1 *304:Z count_o[1] 12.306 
*END

*D_NET *6 0.000578543
*CONN
*P count_o[2] O
*I *305:Z O *D gf180mcu_fd_sc_mcu7t5v0__dlyb_1
*CAP
1 count_o[2] 0.000287126
2 *305:Z 0.000287126
3 count_o[2] *269:A1 4.28994e-06
4 count_o[2] *269:A2 0
*RES
1 *305:Z count_o[2] 10.786 
*END

*D_NET *7 0.000808118
*CONN
*P count_o[3] O
*I *306:Z O *D gf180mcu_fd_sc_mcu7t5v0__dlyb_1
*CAP
1 count_o[3] 0.000276198
2 *306:Z 0.000276198
3 count_o[3] *288:CLK 0.000255722
*RES
1 *306:Z count_o[3] 11.09 
*END

*D_NET *8 0.000925189
*CONN
*P count_o[4] O
*I *307:Z O *D gf180mcu_fd_sc_mcu7t5v0__dlyb_1
*CAP
1 count_o[4] 0.000436149
2 *307:Z 0.000436149
3 count_o[4] count_o[5] 5.28916e-05
*RES
1 *307:Z count_o[4] 7.35 
*END

*D_NET *9 0.000612054
*CONN
*P count_o[5] O
*I *308:Z O *D gf180mcu_fd_sc_mcu7t5v0__dlyb_1
*CAP
1 count_o[5] 0.000279581
2 *308:Z 0.000279581
3 count_o[4] count_o[5] 5.28916e-05
*RES
1 *308:Z count_o[5] 6.438 
*END

*D_NET *10 0.00062037
*CONN
*P count_o[6] O
*I *309:Z O *D gf180mcu_fd_sc_mcu7t5v0__dlyb_1
*CAP
1 count_o[6] 0.000310185
2 *309:Z 0.000310185
*RES
1 *309:Z count_o[6] 10.938 
*END

*D_NET *11 0.000798166
*CONN
*P count_o[7] O
*I *301:Z O *D gf180mcu_fd_sc_mcu7t5v0__dlyb_1
*CAP
1 count_o[7] 0.000399083
2 *301:Z 0.000399083
*RES
1 *301:Z count_o[7] 11.546 
*END

*D_NET *12 0.00113086
*CONN
*P en_i I
*I *299:I I *D gf180mcu_fd_sc_mcu7t5v0__dlyb_1
*CAP
1 en_i 0.000212021
2 *299:I 0.000212021
3 *299:I *269:A2 0
4 *299:I *300:I 0.000408033
5 count_o[1] *299:I 0.000295278
6 *3:10 *299:I 3.50638e-06
*RES
1 en_i *299:I 11.698 
*END

*D_NET *13 0.000608366
*CONN
*P ovf_o O
*I *302:Z O *D gf180mcu_fd_sc_mcu7t5v0__dlyb_1
*CAP
1 ovf_o 0.000304183
2 *302:Z 0.000304183
*RES
1 *302:Z ovf_o 6.438 
*END

*D_NET *14 0.00104027
*CONN
*P rst_ni I
*I *300:I I *D gf180mcu_fd_sc_mcu7t5v0__dlyb_1
*CAP
1 rst_ni 0.000311173
2 *300:I 0.000311173
3 *300:I *55:10 0
4 count_o[1] *300:I 9.88736e-06
5 *299:I *300:I 0.000408033
*RES
1 rst_ni *300:I 11.698 
*END

*D_NET *15 0.00100632
*CONN
*I *286:D I *D gf180mcu_fd_sc_mcu7t5v0__dffq_1
*I *261:ZN O *D gf180mcu_fd_sc_mcu7t5v0__aoi22_1
*CAP
1 *286:D 0.00029963
2 *261:ZN 0.00029963
3 *286:D *258:I 5.69968e-06
4 *286:D *261:A2 1.5961e-05
5 *286:D *283:A1 1.11891e-05
6 *286:D *285:A1 0.000222378
7 *286:D *55:62 3.17618e-05
8 *286:D *55:86 0.000110995
9 *3:10 *286:D 9.07561e-06
*RES
1 *261:ZN *286:D 20.128 
*END

*D_NET *16 0.000528994
*CONN
*I *287:D I *D gf180mcu_fd_sc_mcu7t5v0__dffq_1
*I *265:ZN O *D gf180mcu_fd_sc_mcu7t5v0__nor2_1
*CAP
1 *287:D 0.000152462
2 *265:ZN 0.000152462
3 *287:D *265:A1 4.10312e-05
4 *287:D *265:A2 0.000156912
5 *287:D *57:23 2.6126e-05
*RES
1 *265:ZN *287:D 10.368 
*END

*D_NET *17 0.00131727
*CONN
*I *288:D I *D gf180mcu_fd_sc_mcu7t5v0__dffq_1
*I *269:ZN O *D gf180mcu_fd_sc_mcu7t5v0__aoi21_1
*CAP
1 *288:D 0.000131682
2 *269:ZN 0.000131682
3 *288:D *269:A1 0.000796594
4 *288:D *269:A2 0.000234471
5 *288:D *271:A1 5.76373e-06
6 *288:D *271:A2 6.79912e-06
7 *288:D *288:CLK 1.02823e-05
*RES
1 *269:ZN *288:D 11.356 
*END

*D_NET *18 0.000524063
*CONN
*I *289:D I *D gf180mcu_fd_sc_mcu7t5v0__dffq_1
*I *271:ZN O *D gf180mcu_fd_sc_mcu7t5v0__aoi21_1
*CAP
1 *289:D 0.000191534
2 *271:ZN 0.000191534
3 *289:D *271:A1 0.000140996
*RES
1 *271:ZN *289:D 10.368 
*END

*D_NET *19 0.00162851
*CONN
*I *290:D I *D gf180mcu_fd_sc_mcu7t5v0__dffq_1
*I *274:ZN O *D gf180mcu_fd_sc_mcu7t5v0__nor3_1
*CAP
1 *290:D 0.000747748
2 *274:ZN 0.000747748
3 *290:D *272:A2 0
4 *290:D *273:A2 0.00011088
5 *290:D *290:CLK 0
6 *290:D *37:14 4.61099e-06
7 *290:D *50:25 1.16462e-05
8 *290:D *59:10 0
9 *290:D *60:31 5.87561e-06
*RES
1 *274:ZN *290:D 13.256 
*END

*D_NET *20 0.00161971
*CONN
*I *291:D I *D gf180mcu_fd_sc_mcu7t5v0__dffq_1
*I *277:Z O *D gf180mcu_fd_sc_mcu7t5v0__and3_1
*CAP
1 *291:D 0.000284312
2 *277:Z 0.000284312
3 *291:D *291:CLK 0.000113724
4 *291:D *307:I 0.000179462
5 *291:D *60:21 0.000757902
*RES
1 *277:Z *291:D 12.192 
*END

*D_NET *21 0.000917661
*CONN
*I *292:D I *D gf180mcu_fd_sc_mcu7t5v0__dffq_1
*I *280:ZN O *D gf180mcu_fd_sc_mcu7t5v0__aoi211_1
*CAP
1 *292:D 0.000186295
2 *280:ZN 0.000186295
3 *292:D *278:A3 7.83779e-05
4 *292:D *279:A1 0.000253849
5 *292:D *279:A2 0.000174098
6 *292:D *280:A1 1.64691e-05
7 *292:D *280:B 2.22758e-05
*RES
1 *280:ZN *292:D 19.824 
*END

*D_NET *22 0.00061421
*CONN
*I *293:D I *D gf180mcu_fd_sc_mcu7t5v0__dffq_1
*I *283:Z O *D gf180mcu_fd_sc_mcu7t5v0__and3_1
*CAP
1 *293:D 0.000251315
2 *283:Z 0.000251315
3 *293:D *283:A2 0.000111581
*RES
1 *283:Z *293:D 10.748 
*END

*D_NET *23 0.000328144
*CONN
*I *294:D I *D gf180mcu_fd_sc_mcu7t5v0__dffq_1
*I *285:ZN O *D gf180mcu_fd_sc_mcu7t5v0__oai21_1
*CAP
1 *294:D 0.000156564
2 *285:ZN 0.000156564
3 *294:D *285:A2 1.5015e-05
4 *294:D *294:CLK 0
*RES
1 *285:ZN *294:D 9.912 
*END

*D_NET *24 0.00271194
*CONN
*I *282:A1 I *D gf180mcu_fd_sc_mcu7t5v0__or4_1
*I *281:B I *D gf180mcu_fd_sc_mcu7t5v0__oai31_1
*I *252:ZN O *D gf180mcu_fd_sc_mcu7t5v0__clkinv_1
*CAP
1 *282:A1 0.000152099
2 *281:B 7.16505e-05
3 *252:ZN 0.000666538
4 *24:10 0.000890287
5 *281:B *282:A2 0.000255714
6 *281:B *30:12 0
7 *282:A1 *282:A2 0.000441063
8 *282:A1 *30:12 0
9 *24:10 *278:A1 2.43241e-05
10 *24:10 *280:A1 0
11 *24:10 *283:A2 0.000145125
12 *24:10 *61:29 0
13 *24:10 *62:23 6.51401e-05
*RES
1 *252:ZN *24:10 18.44 
2 *24:10 *281:B 5.184 
3 *24:10 *282:A1 6.02 
*END

*D_NET *25 0.00207588
*CONN
*I *280:A1 I *D gf180mcu_fd_sc_mcu7t5v0__aoi211_1
*I *253:ZN O *D gf180mcu_fd_sc_mcu7t5v0__clkinv_1
*CAP
1 *280:A1 0.000208954
2 *253:ZN 0.000208954
3 *280:A1 *278:A1 0.000213194
4 *280:A1 *278:A3 1.17551e-05
5 *280:A1 *279:A2 1.04712e-05
6 *280:A1 *280:B 3.08902e-05
7 *280:A1 *280:C 2.11799e-05
8 *280:A1 *283:A2 7.90814e-05
9 *280:A1 *28:54 9.60518e-06
10 *280:A1 *37:50 0.000237445
11 *280:A1 *44:12 0.000467288
12 *280:A1 *61:29 0.000560596
13 *292:D *280:A1 1.64691e-05
14 *24:10 *280:A1 0
*RES
1 *253:ZN *280:A1 21.04 
*END

*D_NET *26 0.000153083
*CONN
*I *275:B I *D gf180mcu_fd_sc_mcu7t5v0__oai31_1
*I *254:ZN O *D gf180mcu_fd_sc_mcu7t5v0__clkinv_1
*CAP
1 *275:B 7.65413e-05
2 *254:ZN 7.65413e-05
*RES
1 *254:ZN *275:B 9.532 
*END

*D_NET *27 0.00146298
*CONN
*I *275:A1 I *D gf180mcu_fd_sc_mcu7t5v0__oai31_1
*I *273:A1 I *D gf180mcu_fd_sc_mcu7t5v0__nor3_1
*I *255:ZN O *D gf180mcu_fd_sc_mcu7t5v0__clkinv_1
*CAP
1 *275:A1 0.000220313
2 *273:A1 0.000158665
3 *255:ZN 0
4 *27:4 0.000378979
5 *273:A1 *277:A2 0
6 *273:A1 *37:33 2.23477e-05
7 *273:A1 *60:31 0.000143548
8 *275:A1 *275:A2 0.000137785
9 *275:A1 *277:A2 0.000207006
10 *275:A1 *37:33 3.84115e-05
11 *275:A1 *37:46 3.08648e-05
12 *275:A1 *43:8 0.000121775
13 *275:A1 *60:31 3.28542e-06
*RES
1 *255:ZN *27:4 4.5 
2 *27:4 *273:A1 5.716 
3 *27:4 *275:A1 6.704 
*END

*D_NET *28 0.00924409
*CONN
*I *279:A1 I *D gf180mcu_fd_sc_mcu7t5v0__nor3_1
*I *282:A2 I *D gf180mcu_fd_sc_mcu7t5v0__or4_1
*I *281:A1 I *D gf180mcu_fd_sc_mcu7t5v0__oai31_1
*I *275:A2 I *D gf180mcu_fd_sc_mcu7t5v0__oai31_1
*I *273:A2 I *D gf180mcu_fd_sc_mcu7t5v0__nor3_1
*I *270:A1 I *D gf180mcu_fd_sc_mcu7t5v0__oai21_1
*I *271:A1 I *D gf180mcu_fd_sc_mcu7t5v0__aoi21_1
*I *256:ZN O *D gf180mcu_fd_sc_mcu7t5v0__clkinv_1
*CAP
1 *279:A1 0.000191412
2 *282:A2 0.000104404
3 *281:A1 0
4 *275:A2 2.22327e-05
5 *273:A2 5.68553e-05
6 *270:A1 0
7 *271:A1 0.000204424
8 *256:ZN 0
9 *28:54 0.000340888
10 *28:50 0.000546803
11 *28:39 0.000228353
12 *28:28 0.000354845
13 *28:8 0.000238793
14 *28:6 0.000245146
15 *271:A1 *269:B 8.54902e-05
16 *271:A1 *271:A2 0.00071578
17 *271:A1 *50:25 2.72865e-05
18 *273:A2 *60:31 0.000307974
19 *275:A2 *37:33 4.21224e-05
20 *275:A2 *37:46 3.08902e-05
21 *279:A1 *278:A3 7.22944e-05
22 *279:A1 *279:A2 0.00023013
23 *279:A1 *280:A2 0.000151957
24 *279:A1 *280:B 8.4043e-05
25 *279:A1 *292:CLK 0.000159866
26 *279:A1 *37:46 4.4998e-05
27 *279:A1 *61:23 1.83746e-05
28 *282:A2 *282:A3 0.000211119
29 *28:8 *269:B 1.5961e-05
30 *28:8 *277:A1 0.00034938
31 *28:8 *306:I 3.37485e-05
32 *28:8 *50:25 9.2011e-05
33 *28:28 *274:A3 0.000143336
34 *28:28 *277:A1 0.000861151
35 *28:28 *37:33 1.04712e-05
36 *28:28 *50:25 2.35669e-05
37 *28:39 *277:A1 0.000571475
38 *28:39 *37:33 7.97399e-05
39 *28:39 *60:23 3.94333e-05
40 *28:50 *277:A1 7.48754e-05
41 *28:50 *278:A3 4.09047e-05
42 *28:50 *280:A2 0.000526238
43 *28:50 *37:46 3.89529e-05
44 *28:50 *60:23 0.00010639
45 *28:54 *254:I 3.20348e-05
46 *28:54 *276:A1 5.18761e-05
47 *28:54 *280:B 3.8972e-06
48 *28:54 *282:A3 5.1289e-05
49 *28:54 *37:50 2.52247e-05
50 *28:54 *43:8 0
51 *275:A1 *275:A2 0.000137785
52 *280:A1 *28:54 9.60518e-06
53 *281:B *282:A2 0.000255714
54 *282:A1 *282:A2 0.000441063
55 *288:D *271:A1 5.76373e-06
56 *289:D *271:A1 0.000140996
57 *290:D *273:A2 0.00011088
58 *292:D *279:A1 0.000253849
*RES
1 *256:ZN *28:6 9 
2 *28:6 *28:8 1.14 
3 *28:8 *271:A1 11.432 
4 *28:8 *270:A1 9 
5 *28:6 *28:28 2.356 
6 *28:28 *273:A2 9.836 
7 *28:28 *28:39 1.444 
8 *28:39 *275:A2 9.38 
9 *28:39 *28:50 1.9 
10 *28:50 *28:54 5.944 
11 *28:54 *281:A1 4.5 
12 *28:54 *282:A2 6.4 
13 *28:50 *279:A1 12.04 
*END

*D_NET *29 0.00205365
*CONN
*I *269:A1 I *D gf180mcu_fd_sc_mcu7t5v0__aoi21_1
*I *257:ZN O *D gf180mcu_fd_sc_mcu7t5v0__clkinv_1
*CAP
1 *269:A1 0.00044721
2 *257:ZN 0.00044721
3 *269:A1 *269:A2 6.85351e-05
4 *269:A1 *288:CLK 0.000146163
5 *269:A1 *305:I 0.000143649
6 count_o[2] *269:A1 4.28994e-06
7 *288:D *269:A1 0.000796594
*RES
1 *257:ZN *269:A1 22.56 
*END

*D_NET *30 0.0074399
*CONN
*I *285:A1 I *D gf180mcu_fd_sc_mcu7t5v0__oai21_1
*I *280:C I *D gf180mcu_fd_sc_mcu7t5v0__aoi211_1
*I *274:A1 I *D gf180mcu_fd_sc_mcu7t5v0__nor3_1
*I *258:ZN O *D gf180mcu_fd_sc_mcu7t5v0__clkinv_1
*CAP
1 *285:A1 0.000367691
2 *280:C 0.000177047
3 *274:A1 0.000220782
4 *258:ZN 0
5 *30:12 0.000960187
6 *30:4 0.000930049
7 *274:A1 *276:A2 5.66861e-05
8 *274:A1 *276:A3 0.000272143
9 *274:A1 *276:A4 6.54913e-05
10 *274:A1 *277:A1 1.46914e-05
11 *274:A1 *59:32 0.000482558
12 *280:C *276:A1 0.000122939
13 *280:C *277:A1 8.65627e-06
14 *280:C *278:A3 5.71282e-05
15 *280:C *279:A2 0.000262996
16 *280:C *280:B 1.5015e-05
17 *280:C *37:46 0.00105225
18 *280:C *61:29 0.000324181
19 *285:A1 *258:I 8.55327e-05
20 *285:A1 *283:A1 0.00102529
21 *285:A1 *294:CLK 7.45328e-07
22 *285:A1 *47:6 6.07421e-05
23 *285:A1 *49:15 1.5961e-05
24 *30:12 *276:A2 0.000317503
25 *30:12 *36:8 0
26 *30:12 *43:8 2.31659e-05
27 *280:A1 *280:C 2.11799e-05
28 *281:B *30:12 0
29 *282:A1 *30:12 0
30 *286:D *285:A1 0.000222378
31 *295:I *30:12 7.03624e-05
32 *3:10 *285:A1 4.84531e-05
33 *3:10 *30:12 0.000158097
*RES
1 *258:ZN *30:4 4.5 
2 *30:4 *30:12 8.832 
3 *30:12 *274:A1 11.356 
4 *30:12 *280:C 12.8 
5 *30:4 *285:A1 17.528 
*END

*D_NET *31 0.00480597
*CONN
*I *284:A2 I *D gf180mcu_fd_sc_mcu7t5v0__nand2_1
*I *261:B1 I *D gf180mcu_fd_sc_mcu7t5v0__aoi22_1
*I *259:ZN O *D gf180mcu_fd_sc_mcu7t5v0__nand2_1
*CAP
1 *284:A2 0.000455633
2 *261:B1 4.37724e-05
3 *259:ZN 6.33155e-05
4 *31:6 0.00056272
5 *261:B1 *261:A1 0.000161672
6 *261:B1 *261:B2 0.000376901
7 *284:A2 *283:A1 0.000412451
8 *284:A2 *283:A2 0
9 *284:A2 *283:A3 7.43011e-05
10 *284:A2 *285:B 0.000149685
11 *284:A2 *287:CLK 0.000750628
12 *284:A2 *51:17 0.000800668
13 *284:A2 *51:19 0.000381142
14 *284:A2 *55:62 3.51839e-05
15 *284:A2 *55:86 6.48407e-05
16 *31:6 *259:A1 9.42885e-05
17 *31:6 *261:A1 4.94368e-05
18 *31:6 *261:B2 0.000329336
*RES
1 *259:ZN *31:6 5.488 
2 *31:6 *261:B1 5.488 
3 *31:6 *284:A2 20.036 
*END

*D_NET *32 0.00116566
*CONN
*I *261:B2 I *D gf180mcu_fd_sc_mcu7t5v0__aoi22_1
*I *260:ZN O *D gf180mcu_fd_sc_mcu7t5v0__nand2_1
*CAP
1 *261:B2 0.00019264
2 *260:ZN 0.00019264
3 *261:B2 *260:A1 7.41459e-05
4 *261:B2 *261:A2 0
5 *261:B2 *56:8 0
6 *261:B2 *56:38 0
7 *261:B1 *261:B2 0.000376901
8 *31:6 *261:B2 0.000329336
*RES
1 *260:ZN *261:B2 10.9 
*END

*D_NET *33 0.00155796
*CONN
*I *265:A1 I *D gf180mcu_fd_sc_mcu7t5v0__nor2_1
*I *262:ZN O *D gf180mcu_fd_sc_mcu7t5v0__aoi21_1
*CAP
1 *265:A1 6.0516e-05
2 *262:ZN 6.0516e-05
3 *265:A1 *262:A2 2.6126e-05
4 *265:A1 *265:A2 0.000592213
5 *265:A1 *303:I 0.000777554
6 *287:D *265:A1 4.10312e-05
*RES
1 *262:ZN *265:A1 11.052 
*END

*D_NET *34 0.00284636
*CONN
*I *264:A2 I *D gf180mcu_fd_sc_mcu7t5v0__nand2_1
*I *269:A2 I *D gf180mcu_fd_sc_mcu7t5v0__aoi21_1
*I *263:ZN O *D gf180mcu_fd_sc_mcu7t5v0__nand3_1
*CAP
1 *264:A2 0
2 *269:A2 0.000608823
3 *263:ZN 0.000257992
4 *34:12 0.000866815
5 *269:A2 *271:A2 4.58601e-06
6 *269:A2 *305:I 6.9369e-05
7 *269:A2 *306:I 0.000209639
8 *269:A2 *37:87 7.43203e-06
9 *269:A2 *52:10 0.000104569
10 *269:A2 *55:10 2.2499e-05
11 *269:A2 *55:27 0
12 *269:A2 *55:29 0
13 *34:12 *265:A2 7.41459e-05
14 *34:12 *52:25 8.04346e-05
15 *34:12 *55:10 8.50653e-05
16 *34:12 *55:16 3.42838e-05
17 *34:12 *55:27 9.88736e-06
18 *34:12 *55:62 7.2627e-05
19 *34:12 *56:14 3.51839e-05
20 count_o[2] *269:A2 0
21 *269:A1 *269:A2 6.85351e-05
22 *288:D *269:A2 0.000234471
23 *299:I *269:A2 0
*RES
1 *263:ZN *34:12 15.628 
2 *34:12 *269:A2 18.668 
3 *34:12 *264:A2 4.5 
*END

*D_NET *35 0.00163539
*CONN
*I *265:A2 I *D gf180mcu_fd_sc_mcu7t5v0__nor2_1
*I *264:ZN O *D gf180mcu_fd_sc_mcu7t5v0__nand2_1
*CAP
1 *265:A2 0.000234853
2 *264:ZN 0.000234853
3 *265:A2 *262:A2 2.74661e-05
4 *265:A2 *264:A1 3.07734e-05
5 *265:A2 *52:21 0.000151794
6 *265:A2 *55:10 5.14116e-06
7 *265:A2 *55:16 3.63838e-05
8 *265:A2 *57:23 6.75311e-05
9 *265:A2 *57:25 2.33213e-05
10 *265:A1 *265:A2 0.000592213
11 *287:D *265:A2 0.000156912
12 *34:12 *265:A2 7.41459e-05
*RES
1 *264:ZN *265:A2 12.116 
*END

*D_NET *36 0.00204462
*CONN
*I *272:A2 I *D gf180mcu_fd_sc_mcu7t5v0__aoi21_1
*I *276:A4 I *D gf180mcu_fd_sc_mcu7t5v0__nand4_1
*I *266:Z O *D gf180mcu_fd_sc_mcu7t5v0__and4_1
*CAP
1 *272:A2 0.000237605
2 *276:A4 0.000113749
3 *266:Z 0.000587886
4 *36:8 0.00093924
5 *272:A2 *272:A1 2.96621e-05
6 *272:A2 *276:A3 1.86028e-05
7 *272:A2 *37:14 0
8 *36:8 *37:8 5.1637e-05
9 *36:8 *37:14 7.45328e-07
10 *274:A1 *276:A4 6.54913e-05
11 *290:D *272:A2 0
12 *295:I *36:8 0
13 *3:10 *36:8 0
14 *30:12 *36:8 0
*RES
1 *266:Z *36:8 7.996 
2 *36:8 *276:A4 14.336 
3 *36:8 *272:A2 5.868 
*END

*D_NET *37 0.0123308
*CONN
*I *268:A2 I *D gf180mcu_fd_sc_mcu7t5v0__nand2_1
*I *270:A2 I *D gf180mcu_fd_sc_mcu7t5v0__oai21_1
*I *271:A2 I *D gf180mcu_fd_sc_mcu7t5v0__aoi21_1
*I *279:A2 I *D gf180mcu_fd_sc_mcu7t5v0__nor3_1
*I *281:A2 I *D gf180mcu_fd_sc_mcu7t5v0__oai31_1
*I *282:A3 I *D gf180mcu_fd_sc_mcu7t5v0__or4_1
*I *275:A3 I *D gf180mcu_fd_sc_mcu7t5v0__oai31_1
*I *273:A3 I *D gf180mcu_fd_sc_mcu7t5v0__nor3_1
*I *267:ZN O *D gf180mcu_fd_sc_mcu7t5v0__nand4_1
*CAP
1 *268:A2 0
2 *270:A2 0
3 *271:A2 0.000248989
4 *279:A2 0.000167855
5 *281:A2 0
6 *282:A3 0.00025691
7 *275:A3 0
8 *273:A3 3.8985e-05
9 *267:ZN 0.000385061
10 *37:87 0.000456581
11 *37:81 0.000483307
12 *37:50 0.000330148
13 *37:46 0.000379287
14 *37:33 0.000430397
15 *37:14 0.000820592
16 *37:8 0.00115018
17 *271:A2 *269:B 9.88736e-06
18 *271:A2 *271:B 0.00071578
19 *271:A2 *55:29 1.23313e-05
20 *279:A2 *278:A3 5.76063e-06
21 *279:A2 *292:CLK 1.82146e-05
22 *279:A2 *61:23 0.000493315
23 *279:A2 *61:29 0.000122
24 *282:A3 *278:A3 0
25 *282:A3 *282:A4 0.000198036
26 *282:A3 *44:12 2.22657e-05
27 *37:8 *267:A4 0
28 *37:8 *55:27 0
29 *37:8 *58:8 3.32476e-05
30 *37:14 *274:A3 0.000591977
31 *37:14 *50:10 0
32 *37:14 *50:25 8.8425e-05
33 *37:14 *59:10 2.46622e-05
34 *37:33 *274:A3 3.17618e-05
35 *37:33 *276:A2 2.6126e-05
36 *37:33 *50:10 0
37 *37:33 *60:23 3.17618e-05
38 *37:33 *60:31 0.000339652
39 *37:46 *276:A2 2.74753e-05
40 *37:46 *277:A1 5.64525e-05
41 *37:46 *280:A2 0.000318496
42 *37:81 *306:I 1.78413e-05
43 *37:81 *59:12 1.85457e-05
44 *37:81 *59:32 5.97828e-06
45 *37:87 *269:B 0.00018401
46 *37:87 *306:I 0.000403051
47 *269:A2 *271:A2 4.58601e-06
48 *269:A2 *37:87 7.43203e-06
49 *271:A1 *271:A2 0.00071578
50 *272:A2 *37:14 0
51 *273:A1 *37:33 2.23477e-05
52 *275:A1 *37:33 3.84115e-05
53 *275:A1 *37:46 3.08648e-05
54 *275:A2 *37:33 4.21224e-05
55 *275:A2 *37:46 3.08902e-05
56 *279:A1 *279:A2 0.00023013
57 *279:A1 *37:46 4.4998e-05
58 *280:A1 *279:A2 1.04712e-05
59 *280:A1 *37:50 0.000237445
60 *280:C *279:A2 0.000262996
61 *280:C *37:46 0.00105225
62 *282:A2 *282:A3 0.000211119
63 *288:D *271:A2 6.79912e-06
64 *290:D *37:14 4.61099e-06
65 *292:D *279:A2 0.000174098
66 *28:28 *37:33 1.04712e-05
67 *28:39 *37:33 7.97399e-05
68 *28:50 *37:46 3.89529e-05
69 *28:54 *282:A3 5.1289e-05
70 *28:54 *37:50 2.52247e-05
71 *36:8 *37:8 5.1637e-05
72 *36:8 *37:14 7.45328e-07
*RES
1 *267:ZN *37:8 6.932 
2 *37:8 *37:14 7.844 
3 *37:14 *273:A3 9.228 
4 *37:14 *37:33 6.932 
5 *37:33 *275:A3 4.5 
6 *37:33 *37:46 7.616 
7 *37:46 *37:50 5.184 
8 *37:50 *282:A3 7.16 
9 *37:50 *281:A2 4.5 
10 *37:46 *279:A2 12.04 
11 *37:8 *37:81 6.096 
12 *37:81 *37:87 6.476 
13 *37:87 *271:A2 7.92 
14 *37:87 *270:A2 4.5 
15 *37:81 *268:A2 9 
*END

*D_NET *38 0.00124778
*CONN
*I *269:B I *D gf180mcu_fd_sc_mcu7t5v0__aoi21_1
*I *268:ZN O *D gf180mcu_fd_sc_mcu7t5v0__nand2_1
*CAP
1 *269:B 0.000281046
2 *268:ZN 0.000281046
3 *269:B *306:I 0.000206333
4 *269:B *50:25 0
5 *269:B *55:29 0.00018401
6 *271:A1 *269:B 8.54902e-05
7 *271:A2 *269:B 9.88736e-06
8 *28:8 *269:B 1.5961e-05
9 *37:87 *269:B 0.00018401
*RES
1 *268:ZN *269:B 20.736 
*END

*D_NET *39 0.00110937
*CONN
*I *271:B I *D gf180mcu_fd_sc_mcu7t5v0__aoi21_1
*I *270:ZN O *D gf180mcu_fd_sc_mcu7t5v0__oai21_1
*CAP
1 *271:B 0.000196796
2 *270:ZN 0.000196796
3 *271:A2 *271:B 0.00071578
*RES
1 *270:ZN *271:B 10.9 
*END

*D_NET *40 0.00115397
*CONN
*I *274:A2 I *D gf180mcu_fd_sc_mcu7t5v0__nor3_1
*I *272:ZN O *D gf180mcu_fd_sc_mcu7t5v0__aoi21_1
*CAP
1 *274:A2 4.09361e-05
2 *272:ZN 4.09361e-05
3 *274:A2 *277:A1 0.00053605
4 *274:A2 *59:32 0.00053605
*RES
1 *272:ZN *274:A2 19.444 
*END

*D_NET *41 0.00150297
*CONN
*I *274:A3 I *D gf180mcu_fd_sc_mcu7t5v0__nor3_1
*I *273:ZN O *D gf180mcu_fd_sc_mcu7t5v0__nor3_1
*CAP
1 *274:A3 0.000198781
2 *273:ZN 0.000198781
3 *274:A3 *50:25 4.44366e-05
4 *274:A3 *59:10 0.000293894
5 *28:28 *274:A3 0.000143336
6 *37:14 *274:A3 0.000591977
7 *37:33 *274:A3 3.17618e-05
*RES
1 *273:ZN *274:A3 20.432 
*END

*D_NET *42 0.000570394
*CONN
*I *277:A2 I *D gf180mcu_fd_sc_mcu7t5v0__and3_1
*I *275:ZN O *D gf180mcu_fd_sc_mcu7t5v0__oai31_1
*CAP
1 *277:A2 8.07071e-05
2 *275:ZN 8.07071e-05
3 *277:A2 *277:A1 1.5015e-05
4 *277:A2 *277:A3 0.000186959
5 *273:A1 *277:A2 0
6 *275:A1 *277:A2 0.000207006
*RES
1 *275:ZN *277:A2 10.14 
*END

*D_NET *43 0.00223772
*CONN
*I *280:A2 I *D gf180mcu_fd_sc_mcu7t5v0__aoi211_1
*I *277:A3 I *D gf180mcu_fd_sc_mcu7t5v0__and3_1
*I *276:ZN O *D gf180mcu_fd_sc_mcu7t5v0__nand4_1
*CAP
1 *280:A2 6.967e-05
2 *277:A3 0.000109746
3 *276:ZN 0.00025542
4 *43:8 0.000434835
5 *43:8 *254:I 1.77119e-05
6 *43:8 *276:A1 2.17474e-05
7 *43:8 *276:A2 0
8 *275:A1 *43:8 0.000121775
9 *277:A2 *277:A3 0.000186959
10 *279:A1 *280:A2 0.000151957
11 *28:50 *280:A2 0.000526238
12 *28:54 *43:8 0
13 *30:12 *43:8 2.31659e-05
14 *37:46 *280:A2 0.000318496
*RES
1 *276:ZN *43:8 6.324 
2 *43:8 *277:A3 5.336 
3 *43:8 *280:A2 15.096 
*END

*D_NET *44 0.00295952
*CONN
*I *279:A3 I *D gf180mcu_fd_sc_mcu7t5v0__nor3_1
*I *282:A4 I *D gf180mcu_fd_sc_mcu7t5v0__or4_1
*I *281:A3 I *D gf180mcu_fd_sc_mcu7t5v0__oai31_1
*I *278:ZN O *D gf180mcu_fd_sc_mcu7t5v0__nand3_1
*CAP
1 *279:A3 0.000151014
2 *282:A4 0.000286145
3 *281:A3 0
4 *278:ZN 0.000191898
5 *44:12 0.00032703
6 *279:A3 *278:A2 8.19174e-06
7 *279:A3 *49:36 0.000109659
8 *279:A3 *61:23 0.000672539
9 *282:A4 *278:A2 0
10 *282:A4 *278:A3 2.9378e-06
11 *282:A4 *283:A2 0
12 *282:A4 *49:6 5.3266e-05
13 *44:12 *278:A3 8.81341e-06
14 *44:12 *283:A2 0.000460436
15 *280:A1 *44:12 0.000467288
16 *282:A3 *282:A4 0.000198036
17 *282:A3 *44:12 2.22657e-05
*RES
1 *278:ZN *44:12 14.868 
2 *44:12 *281:A3 4.5 
3 *44:12 *282:A4 6.78 
4 *278:ZN *279:A3 10.9 
*END

*D_NET *45 0.000945959
*CONN
*I *280:B I *D gf180mcu_fd_sc_mcu7t5v0__aoi211_1
*I *279:ZN O *D gf180mcu_fd_sc_mcu7t5v0__nor3_1
*CAP
1 *280:B 0.000233088
2 *279:ZN 0.000233088
3 *280:B *278:A3 0.000323662
4 *280:B *292:CLK 0
5 *279:A1 *280:B 8.4043e-05
6 *280:A1 *280:B 3.08902e-05
7 *280:C *280:B 1.5015e-05
8 *292:D *280:B 2.22758e-05
9 *28:54 *280:B 3.8972e-06
*RES
1 *279:ZN *280:B 19.976 
*END

*D_NET *46 0.00302058
*CONN
*I *283:A2 I *D gf180mcu_fd_sc_mcu7t5v0__and3_1
*I *281:ZN O *D gf180mcu_fd_sc_mcu7t5v0__oai31_1
*CAP
1 *283:A2 0.000698122
2 *281:ZN 0.000698122
3 *283:A2 *278:A1 8.55327e-05
4 *283:A2 *278:A2 8.55327e-05
5 *283:A2 *283:A1 0.000248677
6 *283:A2 *293:CLK 0.000179609
7 *283:A2 *49:6 4.1381e-05
8 *283:A2 *49:15 2.60107e-05
9 *283:A2 *49:31 0
10 *283:A2 *49:36 0
11 *283:A2 *51:17 0.000115986
12 *283:A2 *61:29 4.53826e-05
13 *280:A1 *283:A2 7.90814e-05
14 *282:A4 *283:A2 0
15 *284:A2 *283:A2 0
16 *293:D *283:A2 0.000111581
17 *24:10 *283:A2 0.000145125
18 *44:12 *283:A2 0.000460436
*RES
1 *281:ZN *283:A2 24.688 
*END

*D_NET *47 0.00180387
*CONN
*I *283:A3 I *D gf180mcu_fd_sc_mcu7t5v0__and3_1
*I *285:A2 I *D gf180mcu_fd_sc_mcu7t5v0__oai21_1
*I *282:Z O *D gf180mcu_fd_sc_mcu7t5v0__or4_1
*CAP
1 *283:A3 6.05767e-05
2 *285:A2 2.79978e-05
3 *282:Z 0.000261798
4 *47:6 0.000350373
5 *283:A3 *285:B 0.000469575
6 *283:A3 *294:CLK 0
7 *283:A3 *51:17 0.000275081
8 *47:6 *49:15 0.000141888
9 *47:6 *51:17 6.65225e-05
10 *284:A2 *283:A3 7.43011e-05
11 *285:A1 *47:6 6.07421e-05
12 *294:D *285:A2 1.5015e-05
*RES
1 *282:Z *47:6 6.4 
2 *47:6 *285:A2 4.728 
3 *47:6 *283:A3 14.868 
*END

*D_NET *48 0.00143353
*CONN
*I *285:B I *D gf180mcu_fd_sc_mcu7t5v0__oai21_1
*I *284:ZN O *D gf180mcu_fd_sc_mcu7t5v0__nand2_1
*CAP
1 *285:B 0.000333291
2 *284:ZN 0.000333291
3 *285:B *51:17 0.000147689
4 *283:A3 *285:B 0.000469575
5 *284:A2 *285:B 0.000149685
*RES
1 *284:ZN *285:B 21.42 
*END

*D_NET *49 0.00266074
*CONN
*I *296:I I *D gf180mcu_fd_sc_mcu7t5v0__clkbuf_16
*I *297:I I *D gf180mcu_fd_sc_mcu7t5v0__clkbuf_16
*I *295:Z O *D gf180mcu_fd_sc_mcu7t5v0__clkbuf_16
*CAP
1 *296:I 0.000117901
2 *297:I 0
3 *295:Z 0.000201595
4 *49:36 0.000570715
5 *49:31 0.000573463
6 *49:15 0.000198394
7 *49:6 0.00027934
8 *296:I *61:23 1.5555e-05
9 *49:15 *283:A1 9.42866e-05
10 *49:15 *293:CLK 0.000179609
11 *49:15 *51:17 2.23385e-05
12 *49:36 *278:A1 1.01183e-05
13 *49:36 *278:A2 0
14 *49:36 *61:23 9.25696e-06
15 *279:A3 *49:36 0.000109659
16 *282:A4 *49:6 5.3266e-05
17 *283:A2 *49:6 4.1381e-05
18 *283:A2 *49:15 2.60107e-05
19 *283:A2 *49:31 0
20 *283:A2 *49:36 0
21 *285:A1 *49:15 1.5961e-05
22 *47:6 *49:15 0.000141888
*RES
1 *295:Z *49:6 5.184 
2 *49:6 *49:15 6.78 
3 *49:15 *297:I 9 
4 *295:Z *49:31 5.127 
5 *49:31 *49:36 3.021 
6 *49:36 *296:I 5.184 
*END

*D_NET *50 0.0063425
*CONN
*I *292:CLK I *D gf180mcu_fd_sc_mcu7t5v0__dffq_1
*I *291:CLK I *D gf180mcu_fd_sc_mcu7t5v0__dffq_1
*I *288:CLK I *D gf180mcu_fd_sc_mcu7t5v0__dffq_1
*I *289:CLK I *D gf180mcu_fd_sc_mcu7t5v0__dffq_1
*I *290:CLK I *D gf180mcu_fd_sc_mcu7t5v0__dffq_1
*I *296:Z O *D gf180mcu_fd_sc_mcu7t5v0__clkbuf_16
*CAP
1 *292:CLK 0.000369828
2 *291:CLK 0.000301398
3 *288:CLK 0.000431213
4 *289:CLK 0
5 *290:CLK 0.000230664
6 *296:Z 0.000934206
7 *50:25 0.00126921
8 *50:10 0.00133164
9 *291:CLK *307:I 0