*SPEF "ieee 1481-1999"
*DESIGN "counter_8bit"
*DATE "21:48:28 Monday May 11, 2026"
*VENDOR "The OpenROAD Project"
*PROGRAM "OpenROAD"
*VERSION "dcf36133a369abc8f3c5e5738cd4d82e4903c0e0"
*DESIGN_FLOW "NAME_SCOPE LOCAL" "PIN_CAP NONE"
*DIVIDER /
*DELIMITER :
*BUS_DELIMITER []
*T_UNIT 1 NS
*C_UNIT 1 PF
*R_UNIT 1 OHM
*L_UNIT 1 HENRY

*NAME_MAP
*3 clk_i
*4 count_o[0]
*5 count_o[1]
*6 count_o[2]
*7 count_o[3]
*8 count_o[4]
*9 count_o[5]
*10 count_o[6]
*11 count_o[7]
*12 en_i
*13 ovf_o
*14 rst_ni
*15 _00_
*16 _01_
*17 _02_
*18 _03_
*19 _04_
*20 _05_
*21 _06_
*22 _07_
*23 _08_
*24 _09_
*25 _10_
*26 _11_
*27 _12_
*28 _13_
*29 _14_
*30 _15_
*31 _16_
*32 _17_
*33 _18_
*34 _19_
*35 _20_
*36 _21_
*37 _22_
*38 _23_
*39 _24_
*40 _25_
*41 _26_
*42 _27_
*43 _28_
*44 _29_
*45 _30_
*46 _31_
*47 _32_
*48 _33_
*49 clknet_0_clk_i
*50 clknet_1_0__leaf_clk_i
*51 clknet_1_1__leaf_clk_i
*52 net1
*53 net10
*54 net11
*55 net2
*56 net3
*57 net4
*58 net5
*59 net6
*60 net7
*61 net8
*62 net9
*63 FILLER_0_104
*64 FILLER_0_112
*65 FILLER_0_116
*66 FILLER_0_118
*67 FILLER_0_2
*68 FILLER_0_36
*69 FILLER_0_70
*70 FILLER_10_102
*71 FILLER_10_104
*72 FILLER_10_107
*73 FILLER_10_115
*74 FILLER_10_23
*75 FILLER_10_37
*76 FILLER_11_87
*77 FILLER_12_107
*78 FILLER_12_115
*79 FILLER_12_2
*80 FILLER_12_32
*81 FILLER_12_34
*82 FILLER_12_47
*83 FILLER_12_51
*84 FILLER_12_89
*85 FILLER_13_104
*86 FILLER_13_112
*87 FILLER_13_116
*88 FILLER_13_118
*89 FILLER_13_24
*90 FILLER_13_56
*91 FILLER_13_64
*92 FILLER_13_68
*93 FILLER_13_72
*94 FILLER_14_101
*95 FILLER_14_107
*96 FILLER_14_115
*97 FILLER_14_18
*98 FILLER_14_34
*99 FILLER_14_37
*100 FILLER_15_104
*101 FILLER_15_112
*102 FILLER_15_116
*103 FILLER_15_118
*104 FILLER_15_2
*105 FILLER_15_66
*106 FILLER_15_72
*107 FILLER_16_101
*108 FILLER_16_104
*109 FILLER_16_112
*110 FILLER_16_116
*111 FILLER_16_118
*112 FILLER_16_2
*113 FILLER_16_36
*114 FILLER_16_70
*115 FILLER_16_74
*116 FILLER_16_76
*117 FILLER_16_93
*118 FILLER_1_104
*119 FILLER_1_112
*120 FILLER_1_116
*121 FILLER_1_118
*122 FILLER_1_2
*123 FILLER_1_34
*124 FILLER_1_50
*125 FILLER_1_67
*126 FILLER_1_69
*127 FILLER_1_72
*128 FILLER_2_104
*129 FILLER_2_107
*130 FILLER_2_115
*131 FILLER_2_2
*132 FILLER_2_34
*133 FILLER_2_37
*134 FILLER_2_45
*135 FILLER_2_49
*136 FILLER_2_80
*137 FILLER_2_96
*138 FILLER_3_104
*139 FILLER_3_112
*140 FILLER_3_116
*141 FILLER_3_118
*142 FILLER_3_18
*143 FILLER_3_2
*144 FILLER_3_26
*145 FILLER_3_30
*146 FILLER_3_60
*147 FILLER_3_68
*148 FILLER_3_72
*149 FILLER_4_10
*150 FILLER_4_103
*151 FILLER_4_107
*152 FILLER_4_115
*153 FILLER_4_19
*154 FILLER_4_2
*155 FILLER_4_87
*156 FILLER_5_112
*157 FILLER_5_116
*158 FILLER_5_118
*159 FILLER_5_31
*160 FILLER_5_35
*161 FILLER_5_59
*162 FILLER_5_67
*163 FILLER_5_69
*164 FILLER_5_80
*165 FILLER_6_101
*166 FILLER_6_107
*167 FILLER_6_115
*168 FILLER_6_14
*169 FILLER_6_2
*170 FILLER_6_60
*171 FILLER_7_23
*172 FILLER_7_39
*173 FILLER_7_50
*174 FILLER_7_58
*175 FILLER_7_83
*176 FILLER_7_99
*177 FILLER_8_103
*178 FILLER_8_107
*179 FILLER_8_115
*180 FILLER_8_31
*181 FILLER_8_37
*182 FILLER_8_89
*183 FILLER_8_95
*184 FILLER_9_101
*185 FILLER_9_117
*186 FILLER_9_31
*187 FILLER_9_47
*188 FILLER_9_55
*189 FILLER_9_57
*190 PHY_EDGE_ROW_0_Left_17
*191 PHY_EDGE_ROW_0_Right_0
*192 PHY_EDGE_ROW_10_Left_27
*193 PHY_EDGE_ROW_10_Right_10
*194 PHY_EDGE_ROW_11_Left_28
*195 PHY_EDGE_ROW_11_Right_11
*196 PHY_EDGE_ROW_12_Left_29
*197 PHY_EDGE_ROW_12_Right_12
*198 PHY_EDGE_ROW_13_Left_30
*199 PHY_EDGE_ROW_13_Right_13
*200 PHY_EDGE_ROW_14_Left_31
*201 PHY_EDGE_ROW_14_Right_14
*202 PHY_EDGE_ROW_15_Left_32
*203 PHY_EDGE_ROW_15_Right_15
*204 PHY_EDGE_ROW_16_Left_33
*205 PHY_EDGE_ROW_16_Right_16
*206 PHY_EDGE_ROW_1_Left_18
*207 PHY_EDGE_ROW_1_Right_1
*208 PHY_EDGE_ROW_2_Left_19
*209 PHY_EDGE_ROW_2_Right_2
*210 PHY_EDGE_ROW_3_Left_20
*211 PHY_EDGE_ROW_3_Right_3
*212 PHY_EDGE_ROW_4_Left_21
*213 PHY_EDGE_ROW_4_Right_4
*214 PHY_EDGE_ROW_5_Left_22
*215 PHY_EDGE_ROW_5_Right_5
*216 PHY_EDGE_ROW_6_Left_23
*217 PHY_EDGE_ROW_6_Right_6
*218 PHY_EDGE_ROW_7_Left_24
*219 PHY_EDGE_ROW_7_Right_7
*220 PHY_EDGE_ROW_8_Left_25
*221 PHY_EDGE_ROW_8_Right_8
*222 PHY_EDGE_ROW_9_Left_26
*223 PHY_EDGE_ROW_9_Right_9
*224 TAP_TAPCELL_ROW_0_34
*225 TAP_TAPCELL_ROW_0_35
*226 TAP_TAPCELL_ROW_0_36
*227 TAP_TAPCELL_ROW_10_50
*228 TAP_TAPCELL_ROW_10_51
*229 TAP_TAPCELL_ROW_11_52
*230 TAP_TAPCELL_ROW_12_53
*231 TAP_TAPCELL_ROW_12_54
*232 TAP_TAPCELL_ROW_13_55
*233 TAP_TAPCELL_ROW_14_56
*234 TAP_TAPCELL_ROW_14_57
*235 TAP_TAPCELL_ROW_15_58
*236 TAP_TAPCELL_ROW_16_59
*237 TAP_TAPCELL_ROW_16_60
*238 TAP_TAPCELL_ROW_16_61
*239 TAP_TAPCELL_ROW_1_37
*240 TAP_TAPCELL_ROW_2_38
*241 TAP_TAPCELL_ROW_2_39
*242 TAP_TAPCELL_ROW_3_40
*243 TAP_TAPCELL_ROW_4_41
*244 TAP_TAPCELL_ROW_4_42
*245 TAP_TAPCELL_ROW_5_43
*246 TAP_TAPCELL_ROW_6_44
*247 TAP_TAPCELL_ROW_6_45
*248 TAP_TAPCELL_ROW_7_46
*249 TAP_TAPCELL_ROW_8_47
*250 TAP_TAPCELL_ROW_8_48
*251 TAP_TAPCELL_ROW_9_49
*252 _34_
*253 _35_
*254 _36_
*255 _37_
*256 _38_
*257 _39_
*258 _40_
*259 _41_
*260 _42_
*261 _43_
*262 _44_
*263 _45_
*264 _46_
*265 _47_
*266 _48_
*267 _49_
*268 _50_
*269 _51_
*270 _52_
*271 _53_
*272 _54_
*273 _55_
*274 _56_
*275 _57_
*276 _58_
*277 _59_
*278 _60_
*279 _61_
*280 _62_
*281 _63_
*282 _64_
*283 _65_
*284 _66_
*285 _67_
*286 _68_
*287 _69_
*288 _70_
*289 _71_
*290 _72_
*291 _73_
*292 _74_
*293 _75_
*294 _76_
*295 clkbuf_0_clk_i
*296 clkbuf_1_0__f_clk_i
*297 clkbuf_1_1__f_clk_i
*298 clkload0
*299 input1
*300 input2
*301 output10
*302 output11
*303 output3
*304 output4
*305 output5
*306 output6
*307 output7
*308 output8
*309 output9

*PORTS
clk_i I
count_o[0] O
count_o[1] O
count_o[2] O
count_o[3] O
count_o[4] O
count_o[5] O
count_o[6] O
count_o[7] O
en_i I
ovf_o O
rst_ni I

*D_NET *3 0.00515249
*CONN
*P clk_i I
*I *295:I I *D gf180mcu_fd_sc_mcu7t5v0__clkbuf_16
*CAP
1 clk_i 0.00139302
2 *295:I 7.91818e-05
3 *3:10 0.0014722
4 *295:I *30:12 7.33973e-05
5 *295:I *36:8 0
6 *3:10 count_o[0] 3.75453e-05
7 *3:10 count_o[1] 0.000128752
8 *3:10 *258:I 5.8316e-05
9 *3:10 *259:A2 4.96656e-05
10 *3:10 *261:A1 6.21447e-05
11 *3:10 *261:A2 0
12 *3:10 *263:A2 0.000126352
13 *3:10 *284:A2 8.54106e-06
14 *3:10 *285:A1 5.0649e-05
15 *3:10 *286:D 8.86598e-06
16 *3:10 *287:CLK 0.000469982
17 *3:10 *299:I 3.31517e-06
18 *3:10 *30:12 0.000164756
19 *3:10 *36:8 0
20 *3:10 *52:34 2.35003e-05
21 *3:10 *52:45 8.69516e-05
22 *3:10 *55:64 0.000191736
23 *3:10 *55:70 0.000194271
24 *3:10 *56:16 2.76863e-05
25 *3:10 *57:8 0.000200488
26 *3:10 *57:23 0.000241163
*RES
1 clk_i *3:10 18.2411 
2 *3:10 *295:I 5.20393 
*END

*D_NET *4 0.00170337
*CONN
*P count_o[0] O
*I *303:Z O *D gf180mcu_fd_sc_mcu7t5v0__dlyb_1
*CAP
1 count_o[0] 0.000811504
2 *303:Z 0.000811504
3 count_o[0] count_o[1] 4.28136e-05
4 *3:10 count_o[0] 3.75453e-05
*RES
1 *303:Z count_o[0] 14.805 
*END

*D_NET *5 0.00125761
*CONN
*P count_o[1] O
*I *304:Z O *D gf180mcu_fd_sc_mcu7t5v0__dlyb_1
*CAP
1 count_o[1] 0.000379403
2 *304:Z 0.000379403
3 count_o[1] *299:I 0.000316821
4 count_o[1] *300:I 1.0415e-05
5 count_o[1] *304:I 0
6 count_o[0] count_o[1] 4.28136e-05
7 *3:10 count_o[1] 0.000128752
*RES
1 *304:Z count_o[1] 12.915 
*END

*D_NET *6 0.000620645
*CONN
*P count_o[2] O
*I *305:Z O *D gf180mcu_fd_sc_mcu7t5v0__dlyb_1
*CAP
1 count_o[2] 0.000308146
2 *305:Z 0.000308146
3 count_o[2] *269:A1 4.35286e-06
4 count_o[2] *269:A2 0
*RES
1 *305:Z count_o[2] 11.115 
*END

*D_NET *7 0.000887369
*CONN
*P count_o[3] O
*I *306:Z O *D gf180mcu_fd_sc_mcu7t5v0__dlyb_1
*CAP
1 count_o[3] 0.000296469
2 *306:Z 0.000296469
3 count_o[3] *288:CLK 0.000294431
*RES
1 *306:Z count_o[3] 11.475 
*END

*D_NET *8 0.000992912
*CONN
*P count_o[4] O
*I *307:Z O *D gf180mcu_fd_sc_mcu7t5v0__dlyb_1
*CAP
1 count_o[4] 0.000469552
2 *307:Z 0.000469552
3 count_o[4] count_o[5] 5.38082e-05
*RES
1 *307:Z count_o[4] 7.875 
*END

*D_NET *9 0.000653614
*CONN
*P count_o[5] O
*I *308:Z O *D gf180mcu_fd_sc_mcu7t5v0__dlyb_1
*CAP
1 count_o[5] 0.000299903
2 *308:Z 0.000299903
3 count_o[4] count_o[5] 5.38082e-05
*RES
1 *308:Z count_o[5] 6.795 
*END

*D_NET *10 0.000664455
*CONN
*P count_o[6] O
*I *309:Z O *D gf180mcu_fd_sc_mcu7t5v0__dlyb_1
*CAP
1 count_o[6] 0.000332227
2 *309:Z 0.000332227
*RES
1 *309:Z count_o[6] 11.295 
*END

*D_NET *11 0.000854301
*CONN
*P count_o[7] O
*I *301:Z O *D gf180mcu_fd_sc_mcu7t5v0__dlyb_1
*CAP
1 count_o[7] 0.000427151
2 *301:Z 0.000427151
*RES
1 *301:Z count_o[7] 12.015 
*END

*D_NET *12 0.00123986
*CONN
*P en_i I
*I *299:I I *D gf180mcu_fd_sc_mcu7t5v0__dlyb_1
*CAP
1 en_i 0.000233326
2 *299:I 0.000233326
3 *299:I *269:A2 0
4 *299:I *300:I 0.000453074
5 count_o[1] *299:I 0.000316821
6 *3:10 *299:I 3.31517e-06
*RES
1 en_i *299:I 12.195 
*END

*D_NET *13 0.000649705
*CONN
*P ovf_o O
*I *302:Z O *D gf180mcu_fd_sc_mcu7t5v0__dlyb_1
*CAP
1 ovf_o 0.000324853
2 *302:Z 0.000324853
*RES
1 *302:Z ovf_o 6.795 
*END

*D_NET *14 0.00113853
*CONN
*P rst_ni I
*I *300:I I *D gf180mcu_fd_sc_mcu7t5v0__dlyb_1
*CAP
1 rst_ni 0.000337519
2 *300:I 0.000337519
3 *300:I *55:10 0
4 count_o[1] *300:I 1.0415e-05
5 *299:I *300:I 0.000453074
*RES
1 rst_ni *300:I 12.195 
*END

*D_NET *15 0.00110648
*CONN
*I *286:D I *D gf180mcu_fd_sc_mcu7t5v0__dffq_1
*I *261:ZN O *D gf180mcu_fd_sc_mcu7t5v0__aoi22_1
*CAP
1 *286:D 0.000336869
2 *261:ZN 0.000336869
3 *286:D *258:I 5.56945e-06
4 *286:D *261:A2 1.71254e-05
5 *286:D *283:A1 1.18477e-05
6 *286:D *285:A1 0.000253664
7 *286:D *55:70 0.000135666
8 *3:10 *286:D 8.86598e-06
*RES
1 *261:ZN *286:D 20.52 
*END

*D_NET *16 0.000575443
*CONN
*I *287:D I *D gf180mcu_fd_sc_mcu7t5v0__dffq_1
*I *265:ZN O *D gf180mcu_fd_sc_mcu7t5v0__nor2_1
*CAP
1 *287:D 0.0001674
2 *265:ZN 0.0001674
3 *287:D *265:A1 4.29496e-05
4 *287:D *265:A2 0.000167545
5 *287:D *57:23 3.01487e-05
*RES
1 *265:ZN *287:D 10.62 
*END

*D_NET *17 0.00148442
*CONN
*I *288:D I *D gf180mcu_fd_sc_mcu7t5v0__dffq_1
*I *269:ZN O *D gf180mcu_fd_sc_mcu7t5v0__aoi21_1
*CAP
1 *288:D 0.000149993
2 *269:ZN 0.000149993
3 *288:D *269:A1 0.000916503
4 *288:D *269:A2 0.000244347
5 *288:D *271:A1 5.97457e-06
6 *288:D *271:A2 6.99566e-06
7 *288:D *288:CLK 1.06178e-05
*RES
1 *269:ZN *288:D 11.79 
*END

*D_NET *18 0.00052685
*CONN
*I *289:D I *D gf180mcu_fd_sc_mcu7t5v0__dffq_1
*I *271:ZN O *D gf180mcu_fd_sc_mcu7t5v0__aoi21_1
*CAP
1 *289:D 0.00018344
2 *271:ZN 0.00018344
3 *289:D *271:A1 0.00015997
4 *289:D *271:A2 0
*RES
1 *271:ZN *289:D 10.62 
*END

*D_NET *19 0.00185113
*CONN
*I *290:D I *D gf180mcu_fd_sc_mcu7t5v0__dffq_1
*I *274:ZN O *D gf180mcu_fd_sc_mcu7t5v0__nor3_1
*CAP
1 *290:D 0.000680529
2 *274:ZN 0.000680529
3 *290:D *273:A3 0.00034774
4 *290:D *274:A3 6.90176e-06
5 *290:D *290:CLK 7.15588e-05
6 *290:D *37:14 1.0415e-05
7 *290:D *50:25 5.34584e-05
8 *290:D *59:10 0
*RES
1 *274:ZN *290:D 13.86 
*END

*D_NET *20 0.00181104
*CONN
*I *291:D I *D gf180mcu_fd_sc_mcu7t5v0__dffq_1
*I *277:Z O *D gf180mcu_fd_sc_mcu7t5v0__and3_1
*CAP
1 *291:D 0.000299787
2 *277:Z 0.000299787
3 *291:D *291:CLK 0.000125562
4 *291:D *307:I 0.000196878
5 *291:D *60:23 0.000889027
*RES
1 *277:Z *291:D 12.78 
*END

*D_NET *21 0.000950399
*CONN
*I *292:D I *D gf180mcu_fd_sc_mcu7t5v0__dffq_1
*I *280:ZN O *D gf180mcu_fd_sc_mcu7t5v0__aoi211_1
*CAP
1 *292:D 0.000194584
2 *280:ZN 0.000194584
3 *292:D *279:A1 0.000302293
4 *292:D *279:A2 1.1402e-05
5 *292:D *280:A1 2.32548e-05
6 *292:D *280:B 2.31089e-05
7 *292:D *292:CLK 3.12451e-05
8 *292:D *61:27 0.000169927
*RES
1 *280:ZN *292:D 20.16 
*END

*D_NET *22 0.000665923
*CONN
*I *293:D I *D gf180mcu_fd_sc_mcu7t5v0__dffq_1
*I *283:Z O *D gf180mcu_fd_sc_mcu7t5v0__and3_1
*CAP
1 *293:D 0.000276155
2 *283:Z 0.000276155
3 *293:D *283:A2 0.000113613
*RES
1 *283:Z *293:D 11.07 
*END

*D_NET *23 0.000357366
*CONN
*I *294:D I *D gf180mcu_fd_sc_mcu7t5v0__dffq_1
*I *285:ZN O *D gf180mcu_fd_sc_mcu7t5v0__oai21_1
*CAP
1 *294:D 0.000170624
2 *285:ZN 0.000170624
3 *294:D *285:A2 1.61174e-05
4 *294:D *297:I 0
5 *294:D *51:26 0
*RES
1 *285:ZN *294:D 10.08 
*END

*D_NET *24 0.00304565
*CONN
*I *282:A1 I *D gf180mcu_fd_sc_mcu7t5v0__or4_1
*I *281:B I *D gf180mcu_fd_sc_mcu7t5v0__oai31_1
*I *252:ZN O *D gf180mcu_fd_sc_mcu7t5v0__clkinv_1
*CAP
1 *282:A1 0.000164275
2 *281:B 8.0004e-05
3 *252:ZN 0.00075125
4 *24:10 0.000995529
5 *281:B *282:A2 0.000294421
6 *281:B *30:12 0
7 *282:A1 *282:A2 0.000507502
8 *282:A1 *30:12 0
9 *282:A1 *49:11 0
10 *24:10 *278:A1 2.4935e-05
11 *24:10 *278:A3 0.000148168
12 *24:10 *280:A1 0
13 *24:10 *44:12 1.23523e-05
14 *24:10 *62:23 6.72143e-05
*RES
1 *252:ZN *24:10 19.35 
2 *24:10 *281:B 5.31 
3 *24:10 *282:A1 6.3 
*END

*D_NET *25 0.00197631
*CONN
*I *280:A1 I *D gf180mcu_fd_sc_mcu7t5v0__aoi211_1
*I *253:ZN O *D gf180mcu_fd_sc_mcu7t5v0__clkinv_1
*CAP
1 *280:A1 0.000272565
2 *253:ZN 0.000272565
3 *280:A1 *278:A1 0.000244819
4 *280:A1 *278:A2 0
5 *280:A1 *278:A3 2.63437e-05
6 *280:A1 *279:A2 3.01487e-05
7 *280:A1 *280:B 3.55118e-05
8 *280:A1 *280:C 8.74918e-05
9 *280:A1 *37:59 0.000344002
10 *280:A1 *44:12 0.000546617
11 *280:A1 *61:27 9.29938e-05
12 *292:D *280:A1 2.32548e-05
13 *24:10 *280:A1 0
*RES
1 *253:ZN *280:A1 21.6 
*END

*D_NET *26 0.000160952
*CONN
*I *275:B I *D gf180mcu_fd_sc_mcu7t5v0__oai31_1
*I *254:ZN O *D gf180mcu_fd_sc_mcu7t5v0__clkinv_1
*CAP
1 *275:B 8.0476e-05
2 *254:ZN 8.0476e-05
*RES
1 *254:ZN *275:B 9.63 
*END

*D_NET *27 0.00159826
*CONN
*I *275:A1 I *D gf180mcu_fd_sc_mcu7t5v0__oai31_1
*I *273:A1 I *D gf180mcu_fd_sc_mcu7t5v0__nor3_1
*I *255:ZN O *D gf180mcu_fd_sc_mcu7t5v0__clkinv_1
*CAP
1 *275:A1 0.000274501
2 *273:A1 0.000165961
3 *255:ZN 0
4 *27:4 0.000440462
5 *273:A1 *277:A2 0
6 *273:A1 *60:31 0.000164772
7 *275:A1 *275:A2 0.000161479
8 *275:A1 *276:A1 1.0415e-05
9 *275:A1 *277:A2 0.000244326
10 *275:A1 *43:8 0.000128018
11 *275:A1 *60:31 3.08912e-06
12 *275:A1 *60:39 5.23429e-06
*RES
1 *255:ZN *27:4 4.5 
2 *27:4 *273:A1 5.94 
3 *27:4 *275:A1 7.11 
*END

*D_NET *28 0.0101138
*CONN
*I *279:A1 I *D gf180mcu_fd_sc_mcu7t5v0__nor3_1
*I *282:A2 I *D gf180mcu_fd_sc_mcu7t5v0__or4_1
*I *281:A1 I *D gf180mcu_fd_sc_mcu7t5v0__oai31_1
*I *275:A2 I *D gf180mcu_fd_sc_mcu7t5v0__oai31_1
*I *273:A2 I *D gf180mcu_fd_sc_mcu7t5v0__nor3_1
*I *270:A1 I *D gf180mcu_fd_sc_mcu7t5v0__oai21_1
*I *271:A1 I *D gf180mcu_fd_sc_mcu7t5v0__aoi21_1
*I *256:ZN O *D gf180mcu_fd_sc_mcu7t5v0__clkinv_1
*CAP
1 *279:A1 0.000286272
2 *282:A2 0.000104297
3 *281:A1 0
4 *275:A2 3.52263e-05
5 *273:A2 6.37845e-05
6 *270:A1 0
7 *271:A1 0.000223665
8 *256:ZN 0
9 *28:54 0.000402191
10 *28:50 0.000720536
11 *28:39 0.00024732
12 *28:28 0.000494531
13 *28:8 0.000286082
14 *28:6 0.00041744
15 *271:A1 *269:B 9.08599e-05
16 *271:A1 *271:A2 0.000834753
17 *271:A1 *50:25 2.68706e-05
18 *273:A2 *273:A3 0.000128618
19 *273:A2 *60:31 0.000354728
20 *275:A2 *275:A3 3.98088e-05
21 *279:A1 *279:A2 2.95927e-05
22 *279:A1 *280:A2 0.000174506
23 *279:A1 *280:B 9.5299e-05
24 *279:A1 *292:CLK 0.000160853
25 *279:A1 *37:44 6.05852e-05
26 *279:A1 *61:23 0.000100101
27 *279:A1 *61:27 8.94053e-05
28 *282:A2 *282:A3 0.000348355
29 *28:8 *269:B 1.71254e-05
30 *28:8 *277:A1 8.66077e-05
31 *28:8 *306:I 0.000130361
32 *28:8 *50:25 2.05328e-05
33 *28:8 *59:12 2.35868e-05
34 *28:28 *274:A2 2.5071e-05
35 *28:28 *274:A3 0.000143862
36 *28:28 *277:A1 4.23222e-05
37 *28:28 *37:14 0.00047401
38 *28:28 *37:27 0.000135496
39 *28:28 *59:12 5.50547e-05
40 *28:28 *59:32 8.68351e-06
41 *28:39 *277:A1 0.000133355
42 *28:39 *37:27 0.00052864
43 *28:39 *37:44 9.92166e-05
44 *28:50 *277:A1 1.07281e-05
45 *28:50 *280:A2 0.000604092
46 *28:50 *37:44 0.000105346
47 *28:50 *60:23 0.000101862
48 *28:54 *279:A2 1.44713e-05
49 *28:54 *282:A3 7.20334e-05
50 *28:54 *37:59 3.40729e-05
51 *28:54 *43:8 0
52 *275:A1 *275:A2 0.000161479
53 *281:B *282:A2 0.000294421
54 *282:A1 *282:A2 0.000507502
55 *288:D *271:A1 5.97457e-06
56 *289:D *271:A1 0.00015997
57 *292:D *279:A1 0.000302293
*RES
1 *256:ZN *28:6 9 
2 *28:6 *28:8 1.35 
3 *28:8 *271:A1 11.88 
4 *28:8 *270:A1 9 
5 *28:6 *28:28 2.79 
6 *28:28 *273:A2 9.99 
7 *28:28 *28:39 1.71 
8 *28:39 *275:A2 9.45 
9 *28:39 *28:50 2.25 
10 *28:50 *28:54 6.21 
11 *28:54 *281:A1 4.5 
12 *28:54 *282:A2 6.75 
13 *28:50 *279:A1 12.6 
*END

*D_NET *29 0.00227879
*CONN
*I *269:A1 I *D gf180mcu_fd_sc_mcu7t5v0__aoi21_1
*I *257:ZN O *D gf180mcu_fd_sc_mcu7t5v0__clkinv_1
*CAP
1 *269:A1 0.000491808
2 *257:ZN 0.000491808
3 *269:A1 *269:A2 7.07276e-05
4 *269:A1 *288:CLK 0.00014946
5 *269:A1 *305:I 0.000154129
6 count_o[2] *269:A1 4.35286e-06
7 *288:D *269:A1 0.000916503
*RES
1 *257:ZN *269:A1 23.4 
*END

*D_NET *30 0.00848713
*CONN
*I *285:A1 I *D gf180mcu_fd_sc_mcu7t5v0__oai21_1
*I *280:C I *D gf180mcu_fd_sc_mcu7t5v0__aoi211_1
*I *274:A1 I *D gf180mcu_fd_sc_mcu7t5v0__nor3_1
*I *258:ZN O *D gf180mcu_fd_sc_mcu7t5v0__clkinv_1
*CAP
1 *285:A1 0.000416405
2 *280:C 0.000268211
3 *274:A1 0.000249835
4 *258:ZN 0
5 *30:12 0.00107437
6 *30:4 0.00097273
7 *274:A1 *276:A3 0.000312562
8 *274:A1 *276:A4 6.95539e-05
9 *274:A1 *278:A3 9.0531e-06
10 *274:A1 *37:27 1.52092e-05
11 *274:A1 *37:44 6.2083e-06
12 *274:A1 *59:32 0.000555256
13 *274:A1 *60:39 6.05852e-05
14 *280:C *276:A1 0.000726748
15 *280:C *278:A2 2.1573e-06
16 *280:C *278:A3 0.000221837
17 *280:C *280:B 1.61174e-05
18 *280:C *292:CLK 1.07374e-05
19 *280:C *37:44 9.01083e-06
20 *280:C *61:23 0
21 *280:C *61:27 0.000799622
22 *285:A1 *258:I 9.85004e-05
23 *285:A1 *283:A1 0.00117688
24 *285:A1 *47:6 6.20831e-05
25 *285:A1 *51:26 7.191e-07
26 *30:12 *276:A1 0.00035741
27 *30:12 *36:8 0
28 *30:12 *43:8 7.96333e-06
29 *30:12 *60:39 0.00035741
30 *280:A1 *280:C 8.74918e-05
31 *281:B *30:12 0
32 *282:A1 *30:12 0
33 *286:D *285:A1 0.000253664
34 *295:I *30:12 7.33973e-05
35 *3:10 *285:A1 5.0649e-05
36 *3:10 *30:12 0.000164756
*RES
1 *258:ZN *30:4 4.5 
2 *30:4 *30:12 9.63 
3 *30:12 *274:A1 11.79 
4 *30:12 *280:C 13.5 
5 *30:4 *285:A1 18.27 
*END

*D_NET *31 0.0045646
*CONN
*I *284:A2 I *D gf180mcu_fd_sc_mcu7t5v0__nand2_1
*I *261:B1 I *D gf180mcu_fd_sc_mcu7t5v0__aoi22_1
*I *259:ZN O *D gf180mcu_fd_sc_mcu7t5v0__nand2_1
*CAP
1 *284:A2 0.000698298
2 *261:B1 3.93348e-05
3 *259:ZN 7.49691e-05
4 *31:6 0.000812601
5 *261:B1 *261:A1 0.000183652
6 *261:B1 *261:B2 0.000444513
7 *284:A2 *261:A2 0
8 *284:A2 *283:A1 0.000430608
9 *284:A2 *283:A2 0
10 *284:A2 *283:A3 7.90122e-05
11 *284:A2 *285:B 0.00015673
12 *284:A2 *287:CLK 0
13 *284:A2 *51:19 0.000955665
14 *284:A2 *51:30 0
15 *284:A2 *52:45 6.98034e-05
16 *284:A2 *55:64 8.68398e-06
17 *284:A2 *55:70 6.72969e-05
18 *31:6 *259:A1 9.06009e-05
19 *31:6 *261:A1 6.34901e-05
20 *31:6 *261:B2 0.0003808
21 *3:10 *284:A2 8.54106e-06
*RES
1 *259:ZN *31:6 5.67 
2 *31:6 *261:B1 5.67 
3 *31:6 *284:A2 21.24 
*END

*D_NET *32 0.00139167
*CONN
*I *261:B2 I *D gf180mcu_fd_sc_mcu7t5v0__aoi22_1
*I *260:ZN O *D gf180mcu_fd_sc_mcu7t5v0__nand2_1
*CAP
1 *261:B2 0.000114312
2 *260:ZN 0.000114312
3 *261:B2 *260:A1 0.000121846
4 *261:B2 *261:A2 0.000215887
5 *261:B1 *261:B2 0.000444513
6 *31:6 *261:B2 0.0003808
*RES
1 *260:ZN *261:B2 11.25 
*END

*D_NET *33 0.00176489
*CONN
*I *265:A1 I *D gf180mcu_fd_sc_mcu7t5v0__nor2_1
*I *262:ZN O *D gf180mcu_fd_sc_mcu7t5v0__aoi21_1
*CAP
1 *265:A1 6.44017e-05
2 *262:ZN 6.44017e-05
3 *265:A1 *265:A2 0.000690034
4 *265:A1 *303:I 0.000903105
5 *287:D *265:A1 4.29496e-05
*RES
1 *262:ZN *265:A1 11.43 
*END

*D_NET *34 0.00327645
*CONN
*I *264:A2 I *D gf180mcu_fd_sc_mcu7t5v0__nand2_1
*I *269:A2 I *D gf180mcu_fd_sc_mcu7t5v0__aoi21_1
*I *263:ZN O *D gf180mcu_fd_sc_mcu7t5v0__nand3_1
*CAP
1 *264:A2 0
2 *269:A2 0.000665363
3 *263:ZN 0.000214296
4 *34:12 0.000879659
5 *269:A2 *271:A2 4.6613e-06
6 *269:A2 *305:I 7.32872e-05
7 *269:A2 *306:I 0.00022444
8 *269:A2 *37:83 7.71021e-06
9 *269:A2 *55:10 0.000320262
10 *269:A2 *55:25 0
11 *269:A2 *55:27 0
12 *34:12 *265:A2 8.69474e-05
13 *34:12 *52:10 6.36148e-05
14 *34:12 *52:12 5.78854e-06
15 *34:12 *52:30 5.23429e-06
16 *34:12 *55:10 6.31783e-05
17 *34:12 *55:14 9.04462e-05
18 *34:12 *55:58 3.91591e-05
19 *34:12 *56:16 0.000217327
20 count_o[2] *269:A2 0
21 *269:A1 *269:A2 7.07276e-05
22 *288:D *269:A2 0.000244347
23 *299:I *269:A2 0
*RES
1 *263:ZN *34:12 16.02 
2 *34:12 *269:A2 19.62 
3 *34:12 *264:A2 4.5 
*END

*D_NET *35 0.00182926
*CONN
*I *265:A2 I *D gf180mcu_fd_sc_mcu7t5v0__nor2_1
*I *264:ZN O *D gf180mcu_fd_sc_mcu7t5v0__nand2_1
*CAP
1 *265:A2 0.000249787
2 *264:ZN 0.000249787
3 *265:A2 *303:I 3.22348e-05
4 *265:A2 *52:30 0.000169416
5 *265:A2 *55:10 5.30888e-06
6 *265:A2 *55:25 3.22122e-05
7 *265:A2 *56:16 3.98088e-05
8 *265:A2 *57:23 7.00666e-05
9 *265:A2 *57:25 3.61104e-05
10 *265:A1 *265:A2 0.000690034
11 *287:D *265:A2 0.000167545
12 *34:12 *265:A2 8.69474e-05
*RES
1 *264:ZN *265:A2 12.69 
*END

*D_NET *36 0.00210677
*CONN
*I *276:A4 I *D gf180mcu_fd_sc_mcu7t5v0__nand4_1
*I *272:A2 I *D gf180mcu_fd_sc_mcu7t5v0__aoi21_1
*I *266:Z O *D gf180mcu_fd_sc_mcu7t5v0__and4_1
*CAP
1 *276:A4 0.000100689
2 *272:A2 0.000243402
3 *266:Z 0.000629599
4 *36:8 0.00097369
5 *272:A2 *272:A1 1.39839e-05
6 *272:A2 *276:A3 0
7 *272:A2 *37:8 7.191e-07
8 *272:A2 *37:14 2.42267e-05
9 *36:8 *37:8 5.09089e-05
10 *274:A1 *276:A4 6.95539e-05
11 *295:I *36:8 0
12 *3:10 *36:8 0
13 *30:12 *36:8 0
*RES
1 *266:Z *36:8 8.64 
2 *36:8 *272:A2 5.85 
3 *36:8 *276:A4 14.49 
*END

*D_NET *37 0.0143842
*CONN
*I *268:A2 I *D gf180mcu_fd_sc_mcu7t5v0__nand2_1
*I *270:A2 I *D gf180mcu_fd_sc_mcu7t5v0__oai21_1
*I *271:A2 I *D gf180mcu_fd_sc_mcu7t5v0__aoi21_1
*I *281:A2 I *D gf180mcu_fd_sc_mcu7t5v0__oai31_1
*I *282:A3 I *D gf180mcu_fd_sc_mcu7t5v0__or4_1
*I *279:A2 I *D gf180mcu_fd_sc_mcu7t5v0__nor3_1
*I *275:A3 I *D gf180mcu_fd_sc_mcu7t5v0__oai31_1
*I *273:A3 I *D gf180mcu_fd_sc_mcu7t5v0__nor3_1
*I *267:ZN O *D gf180mcu_fd_sc_mcu7t5v0__nand4_1
*CAP
1 *268:A2 0
2 *270:A2 0
3 *271:A2 0.000243846
4 *281:A2 0
5 *282:A3 0.000215628
6 *279:A2 0.000364713
7 *275:A3 2.75957e-05
8 *273:A3 0.000135458
9 *267:ZN 0.000420693
10 *37:83 0.000477801
11 *37:77 0.000537388
12 *37:59 0.000302791
13 *37:44 0.000578155
14 *37:27 0.000186429
15 *37:14 0.000458489
16 *37:8 0.0010146
17 *271:A2 *269:B 1.0415e-05
18 *271:A2 *271:B 0.000834753
19 *271:A2 *277:A1 1.27919e-05
20 *271:A2 *55:27 5.22596e-06
21 *273:A3 *60:31 9.3226e-06
22 *275:A3 *60:31 2.40933e-06
23 *275:A3 *60:39 3.01487e-05
24 *279:A2 *280:B 0.000625308
25 *279:A2 *292:CLK 3.11077e-05
26 *282:A3 *282:A4 0.000340636
27 *282:A3 *44:12 1.56779e-05
28 *37:8 *267:A4 0
29 *37:8 *55:25 0
30 *37:8 *58:8 3.32854e-05
31 *37:14 *274:A2 0.000476588
32 *37:14 *274:A3 4.04802e-05
33 *37:14 *59:10 1.06839e-05
34 *37:27 *274:A2 0.000101624
35 *37:27 *276:A3 4.08303e-05
36 *37:27 *59:32 3.42509e-05
37 *37:27 *60:39 0.00032797
38 *37:44 *276:A1 0.00072417
39 *37:44 *280:A2 0.000747296
40 *37:44 *61:27 0.000492198
41 *37:77 *306:I 1.85284e-05
42 *37:77 *59:12 1.90809e-05
43 *37:77 *59:32 5.60389e-06
44 *37:83 *269:B 0.000195939
45 *37:83 *306:I 0.000459967
46 *269:A2 *271:A2 4.6613e-06
47 *269:A2 *37:83 7.71021e-06
48 *271:A1 *271:A2 0.000834753
49 *272:A2 *37:8 7.191e-07
50 *272:A2 *37:14 2.42267e-05
51 *273:A2 *273:A3 0.000128618
52 *274:A1 *37:27 1.52092e-05
53 *274:A1 *37:44 6.2083e-06
54 *275:A2 *275:A3 3.98088e-05
55 *279:A1 *279:A2 2.95927e-05
56 *279:A1 *37:44 6.05852e-05
57 *280:A1 *279:A2 3.01487e-05
58 *280:A1 *37:59 0.000344002
59 *280:C *37:44 9.01083e-06
60 *282:A2 *282:A3 0.000348355
61 *288:D *271:A2 6.99566e-06
62 *289:D *271:A2 0
63 *290:D *273:A3 0.00034774
64 *290:D *37:14 1.0415e-05
65 *292:D *279:A2 1.1402e-05
66 *28:28 *37:14 0.00047401
67 *28:28 *37:27 0.000135496
68 *28:39 *37:27 0.00052864
69 *28:39 *37:44 9.92166e-05
70 *28:50 *37:44 0.000105346
71 *28:54 *279:A2 1.44713e-05
72 *28:54 *282:A3 7.20334e-05
73 *28:54 *37:59 3.40729e-05
74 *36:8 *37:8 5.09089e-05
*RES
1 *267:ZN *37:8 7.38 
2 *37:8 *37:14 7.38 
3 *37:14 *273:A3 10.44 
4 *37:14 *37:27 1.71 
5 *37:27 *275:A3 9.27 
6 *37:27 *37:44 8.19 
7 *37:44 *279:A2 16.92 
8 *37:44 *37:59 0.99 
9 *37:59 *282:A3 7.56 
10 *37:59 *281:A2 4.5 
11 *37:8 *37:77 6.39 
12 *37:77 *37:83 6.84 
13 *37:83 *271:A2 8.55 
14 *37:83 *270:A2 4.5 
15 *37:77 *268:A2 9 
*END

*D_NET *38 0.00137798
*CONN
*I *269:B I *D gf180mcu_fd_sc_mcu7t5v0__aoi21_1
*I *268:ZN O *D gf180mcu_fd_sc_mcu7t5v0__nand2_1
*CAP
1 *269:B 0.000315295
2 *268:ZN 0.000315295
3 *269:B *306:I 0.00023711
4 *269:B *50:25 0
5 *269:B *55:27 0.000195939
6 *271:A1 *269:B 9.08599e-05
7 *271:A2 *269:B 1.0415e-05
8 *28:8 *269:B 1.71254e-05
9 *37:83 *269:B 0.000195939
*RES
1 *268:ZN *269:B 21.24 
*END

*D_NET *39 0.00126871
*CONN
*I *271:B I *D gf180mcu_fd_sc_mcu7t5v0__aoi21_1
*I *270:ZN O *D gf180mcu_fd_sc_mcu7t5v0__oai21_1
*CAP
1 *271:B 0.000182334
2 *270:ZN 0.000182334
3 *271:B *277:A1 6.92926e-05
4 *271:A2 *271:B 0.000834753
*RES
1 *270:ZN *271:B 11.25 
*END

*D_NET *40 0.00134255
*CONN
*I *274:A2 I *D gf180mcu_fd_sc_mcu7t5v0__nor3_1
*I *272:ZN O *D gf180mcu_fd_sc_mcu7t5v0__aoi21_1
*CAP
1 *274:A2 6.11777e-05
2 *272:ZN 6.11777e-05
3 *274:A2 *59:32 0.000616912
4 *28:28 *274:A2 2.5071e-05
5 *37:14 *274:A2 0.000476588
6 *37:27 *274:A2 0.000101624
*RES
1 *272:ZN *274:A2 19.71 
*END

*D_NET *41 0.00171815
*CONN
*I *274:A3 I *D gf180mcu_fd_sc_mcu7t5v0__nor3_1
*I *273:ZN O *D gf180mcu_fd_sc_mcu7t5v0__nor3_1
*CAP
1 *274:A3 0.000251713
2 *273:ZN 0.000251713
3 *274:A3 *277:A1 0.000678216
4 *274:A3 *59:10 0.000345267
5 *290:D *274:A3 6.90176e-06
6 *28:28 *274:A3 0.000143862
7 *37:14 *274:A3 4.04802e-05
*RES
1 *273:ZN *274:A3 20.88 
*END

*D_NET *42 0.000647479
*CONN
*I *277:A2 I *D gf180mcu_fd_sc_mcu7t5v0__and3_1
*I *275:ZN O *D gf180mcu_fd_sc_mcu7t5v0__oai31_1
*CAP
1 *277:A2 9.29892e-05
2 *275:ZN 9.29892e-05
3 *277:A2 *277:A1 1.0415e-05
4 *277:A2 *277:A3 0.000206759
5 *273:A1 *277:A2 0
6 *275:A1 *277:A2 0.000244326
*RES
1 *275:ZN *277:A2 10.35 
*END

*D_NET *43 0.00290105
*CONN
*I *280:A2 I *D gf180mcu_fd_sc_mcu7t5v0__aoi211_1
*I *277:A3 I *D gf180mcu_fd_sc_mcu7t5v0__and3_1
*I *276:ZN O *D gf180mcu_fd_sc_mcu7t5v0__nand4_1
*CAP
1 *280:A2 7.01392e-05
2 *277:A3 0.000123803
3 *276:ZN 0.000303474
4 *43:8 0.000497416
5 *43:8 *276:A1 3.75875e-05
6 *275:A1 *43:8 0.000128018
7 *277:A2 *277:A3 0.000206759
8 *279:A1 *280:A2 0.000174506
9 *28:50 *280:A2 0.000604092
10 *28:54 *43:8 0
11 *30:12 *43:8 7.96333e-06
12 *37:44 *280:A2 0.000747296
*RES
1 *276:ZN *43:8 6.66 
2 *43:8 *277:A3 5.49 
3 *43:8 *280:A2 15.39 
*END

*D_NET *44 0.0032266
*CONN
*I *279:A3 I *D gf180mcu_fd_sc_mcu7t5v0__nor3_1
*I *282:A4 I *D gf180mcu_fd_sc_mcu7t5v0__or4_1
*I *281:A3 I *D gf180mcu_fd_sc_mcu7t5v0__oai31_1
*I *278:ZN O *D gf180mcu_fd_sc_mcu7t5v0__nand3_1
*CAP
1 *279:A3 0.000195705
2 *282:A4 0.000233687
3 *281:A3 0
4 *278:ZN 0.000259819
5 *44:12 0.000297802
6 *279:A3 *278:A2 5.5528e-05
7 *279:A3 *49:34 0.000111199
8 *279:A3 *61:23 0.000575844
9 *282:A4 *278:A2 0
10 *282:A4 *283:A2 6.08466e-05
11 *282:A4 *49:6 0.000127736
12 *44:12 *278:A3 0.000393153
13 *280:A1 *44:12 0.000546617
14 *282:A3 *282:A4 0.000340636
15 *282:A3 *44:12 1.56779e-05
16 *24:10 *44:12 1.23523e-05
*RES
1 *278:ZN *44:12 15.12 
2 *44:12 *281:A3 4.5 
3 *44:12 *282:A4 7.29 
4 *278:ZN *279:A3 11.25 
*END

*D_NET *45 0.00114624
*CONN
*I *280:B I *D gf180mcu_fd_sc_mcu7t5v0__aoi211_1
*I *279:ZN O *D gf180mcu_fd_sc_mcu7t5v0__nor3_1
*CAP
1 *280:B 0.000158613
2 *279:ZN 0.000158613
3 *280:B *292:CLK 3.36658e-05
4 *279:A1 *280:B 9.5299e-05
5 *279:A2 *280:B 0.000625308
6 *280:A1 *280:B 3.55118e-05
7 *280:C *280:B 1.61174e-05
8 *292:D *280:B 2.31089e-05
*RES
1 *279:ZN *280:B 20.34 
*END

*D_NET *46 0.0022126
*CONN
*I *283:A2 I *D gf180mcu_fd_sc_mcu7t5v0__and3_1
*I *281:ZN O *D gf180mcu_fd_sc_mcu7t5v0__oai31_1
*CAP
1 *283:A2 0.00071738
2 *281:ZN 0.00071738
3 *283:A2 *283:A1 0.000286817
4 *283:A2 *293:CLK 0.000192205
5 *283:A2 *49:6 0
6 *283:A2 *49:11 0
7 *283:A2 *51:19 0.000124363
8 *282:A4 *283:A2 6.08466e-05
9 *284:A2 *283:A2 0
10 *293:D *283:A2 0.000113613
*RES
1 *281:ZN *283:A2 15.3 
*END

*D_NET *47 0.00203023
*CONN
*I *283:A3 I *D gf180mcu_fd_sc_mcu7t5v0__and3_1
*I *285:A2 I *D gf180mcu_fd_sc_mcu7t5v0__oai21_1
*I *282:Z O *D gf180mcu_fd_sc_mcu7t5v0__or4_1
*CAP
1 *283:A3 7.00243e-05
2 *285:A2 2.94878e-05
3 *282:Z 0.000253708
4 *47:6 0.00035322
5 *283:A3 *285:B 0.000538918
6 *283:A3 *51:19 0.000315457
7 *283:A3 *51:26 0
8 *47:6 *293:CLK 5.50498e-05
9 *47:6 *297:I 0.000129902
10 *47:6 *49:11 4.1854e-05
11 *47:6 *51:19 8.54025e-05
12 *284:A2 *283:A3 7.90122e-05
13 *285:A1 *47:6 6.20831e-05
14 *294:D *285:A2 1.61174e-05
*RES
1 *282:Z *47:6 6.75 
2 *47:6 *285:A2 4.77 
3 *47:6 *283:A3 15.12 
*END

*D_NET *48 0.00156249
*CONN
*I *285:B I *D gf180mcu_fd_sc_mcu7t5v0__oai21_1
*I *284:ZN O *D gf180mcu_fd_sc_mcu7t5v0__nand2_1
*CAP
1 *285:B 0.000354388
2 *284:ZN 0.000354388
3 *285:B *51:19 0.000158069
4 *283:A3 *285:B 0.000538918
5 *284:A2 *285:B 0.00015673
*RES
1 *284:ZN *285:B 22.05 
*END

*D_NET *49 0.00259551
*CONN
*I *296:I I *D gf180mcu_fd_sc_mcu7t5v0__clkbuf_16
*I *297:I I *D gf180mcu_fd_sc_mcu7t5v0__clkbuf_16
*I *295:Z O *D gf180mcu_fd_sc_mcu7t5v0__clkbuf_16
*CAP
1 *296:I 0.000122421
2 *297:I 0.000120522
3 *295:Z 0.000224177
4 *49:34 0.000608937
5 *49:29 0.000620718
6 *49:11 0.000233176
7 *49:6 0.000202628
8 *296:I *61:23 1.87105e-05
9 *49:11 *293:CLK 1.06178e-05
10 *49:34 *278:A1 1.03727e-05
11 *49:34 *278:A2 0
12 *49:34 *61:23 1.25349e-05
13 *279:A3 *49:34 0.000111199
14 *282:A1 *49:11 0
15 *282:A4 *49:6 0.000127736
16 *283:A2 *49:6 0
17 *283:A2 *49:11 0
18 *294:D *297:I 0
19 *47:6 *297:I 0.000129902
20 *47:6 *49:11 4.1854e-05
*RES
1 *295:Z *49:6 5.31 
2 *49:6 *49:11 0.99 
3 *49:11 *297:I 5.58 
4 *295:Z *49:29 5.2425 
5 *49:29 *49:34 3.5775 
6 *49:34 *296:I 5.31 
*END

*D_NET *50 0.00706016
*CONN
*I *292:CLK I *D gf180mcu_fd_sc_mcu7t5v0__dffq_1
*I *291:CLK I *D gf180mcu_fd_sc_mcu7t5v0__dffq_1
*I *288:CLK I *D gf180mcu_fd_sc_mcu7t5v0__dffq_1
*I *289:CLK I *D gf180mcu_fd_sc_mcu7t5v0__dffq_1
*I *290:CLK I *D gf180mcu_fd_sc_mcu7t5v0__dffq_1
*I *296:Z O *D gf180mcu_fd_sc_mcu7t5v0__clkbuf_16
*CAP
1 *292:CLK 0.000476106
2 *291:CLK 0.000316878
3 *288:CLK 0.000471905
4 *289:CLK 0
5 *290:CLK 0.000206576
6 *296:Z 0.00106897
7 *50:25 0.00128649
8 *50:10 0.00129715
9 *291:CLK *307:I 0
10 *292:CLK *61:23 5.53346e-05
11 *50:10 *277:A1 0
12 *50:25 *277:A1 0.000848645
13 *50:25 *59:10 1.20019e-05
14 count_o[3] *288:CLK 0.000294431
15 *269:A1 *288:CLK 0.00014946