*SPEF "ieee 1481-1999"
*DESIGN "counter_8bit"
*DATE "21:46:12 Monday May 11, 2026"
*VENDOR "The OpenROAD Project"
*PROGRAM "OpenROAD"
*VERSION "dcf36133a369abc8f3c5e5738cd4d82e4903c0e0"
*DESIGN_FLOW "NAME_SCOPE LOCAL" "PIN_CAP NONE"
*DIVIDER /
*DELIMITER :
*BUS_DELIMITER []
*T_UNIT 1 NS
*C_UNIT 1 PF
*R_UNIT 1 OHM
*L_UNIT 1 HENRY

*NAME_MAP
*3 clk_i
*4 count_o[0]
*5 count_o[1]
*6 count_o[2]
*7 count_o[3]
*8 count_o[4]
*9 count_o[5]
*10 count_o[6]
*11 count_o[7]
*12 en_i
*13 ovf_o
*14 rst_ni
*15 _00_
*16 _01_
*17 _02_
*18 _03_
*19 _04_
*20 _05_
*21 _06_
*22 _07_
*23 _08_
*24 _09_
*25 _10_
*26 _11_
*27 _12_
*28 _13_
*29 _14_
*30 _15_
*31 _16_
*32 _17_
*33 _18_
*34 _19_
*35 _20_
*36 _21_
*37 _22_
*38 _23_
*39 _24_
*40 _25_
*41 _26_
*42 _27_
*43 _28_
*44 _29_
*45 _30_
*46 _31_
*47 _32_
*48 _33_
*49 clknet_0_clk_i
*50 clknet_1_0__leaf_clk_i
*51 clknet_1_1__leaf_clk_i
*52 net1
*53 net10
*54 net11
*55 net2
*56 net3
*57 net4
*58 net5
*59 net6
*60 net7
*61 net8
*62 net9
*63 FILLER_0_101
*64 FILLER_0_104
*65 FILLER_0_138
*66 FILLER_0_154
*67 FILLER_0_162
*68 FILLER_0_2
*69 FILLER_0_36
*70 FILLER_0_70
*71 FILLER_0_78
*72 FILLER_0_82
*73 FILLER_0_84
*74 FILLER_10_104
*75 FILLER_10_157
*76 FILLER_10_161
*77 FILLER_10_163
*78 FILLER_10_2
*79 FILLER_10_34
*80 FILLER_10_37
*81 FILLER_10_53
*82 FILLER_10_60
*83 FILLER_10_76
*84 FILLER_11_124
*85 FILLER_11_142
*86 FILLER_11_158
*87 FILLER_11_162
*88 FILLER_11_2
*89 FILLER_11_34
*90 FILLER_11_42
*91 FILLER_11_46
*92 FILLER_11_55
*93 FILLER_11_72
*94 FILLER_12_104
*95 FILLER_12_115
*96 FILLER_12_147
*97 FILLER_12_163
*98 FILLER_12_2
*99 FILLER_12_34
*100 FILLER_12_37
*101 FILLER_12_41
*102 FILLER_12_43
*103 FILLER_13_128
*104 FILLER_13_136
*105 FILLER_13_142
*106 FILLER_13_158
*107 FILLER_13_162
*108 FILLER_13_2
*109 FILLER_13_34
*110 FILLER_13_65
*111 FILLER_13_69
*112 FILLER_13_72
*113 FILLER_14_107
*114 FILLER_14_113
*115 FILLER_14_145
*116 FILLER_14_147
*117 FILLER_14_18
*118 FILLER_14_34
*119 FILLER_14_37
*120 FILLER_14_67
*121 FILLER_14_98
*122 FILLER_15_127
*123 FILLER_15_135
*124 FILLER_15_139
*125 FILLER_15_142
*126 FILLER_15_146
*127 FILLER_15_18
*128 FILLER_15_34
*129 FILLER_15_38
*130 FILLER_15_66
*131 FILLER_15_72
*132 FILLER_15_74
*133 FILLER_15_84
*134 FILLER_15_92
*135 FILLER_15_96
*136 FILLER_16_100
*137 FILLER_16_104
*138 FILLER_16_107
*139 FILLER_16_139
*140 FILLER_16_155
*141 FILLER_16_163
*142 FILLER_16_18
*143 FILLER_16_34
*144 FILLER_16_37
*145 FILLER_16_45
*146 FILLER_16_47
*147 FILLER_16_60
*148 FILLER_16_92
*149 FILLER_17_136
*150 FILLER_17_142
*151 FILLER_17_158
*152 FILLER_17_162
*153 FILLER_17_2
*154 FILLER_17_66
*155 FILLER_17_72
*156 FILLER_18_101
*157 FILLER_18_107
*158 FILLER_18_139
*159 FILLER_18_155
*160 FILLER_18_163
*161 FILLER_18_2
*162 FILLER_18_34
*163 FILLER_18_37
*164 FILLER_19_136
*165 FILLER_19_142
*166 FILLER_19_158
*167 FILLER_19_162
*168 FILLER_19_2
*169 FILLER_19_66
*170 FILLER_19_72
*171 FILLER_1_125
*172 FILLER_1_133
*173 FILLER_1_137
*174 FILLER_1_139
*175 FILLER_1_142
*176 FILLER_1_158
*177 FILLER_1_162
*178 FILLER_1_2
*179 FILLER_1_66
*180 FILLER_1_72
*181 FILLER_1_76
*182 FILLER_1_93
*183 FILLER_20_101
*184 FILLER_20_107
*185 FILLER_20_139
*186 FILLER_20_155
*187 FILLER_20_163
*188 FILLER_20_2
*189 FILLER_20_34
*190 FILLER_20_37
*191 FILLER_21_136
*192 FILLER_21_142
*193 FILLER_21_158
*194 FILLER_21_162
*195 FILLER_21_2
*196 FILLER_21_66
*197 FILLER_21_72
*198 FILLER_22_104
*199 FILLER_22_138
*200 FILLER_22_154
*201 FILLER_22_162
*202 FILLER_22_2
*203 FILLER_22_36
*204 FILLER_2_101
*205 FILLER_2_107
*206 FILLER_2_139
*207 FILLER_2_155
*208 FILLER_2_163
*209 FILLER_2_2
*210 FILLER_2_34
*211 FILLER_2_37
*212 FILLER_3_136
*213 FILLER_3_142
*214 FILLER_3_158
*215 FILLER_3_162
*216 FILLER_3_2
*217 FILLER_3_66
*218 FILLER_3_72
*219 FILLER_4_101
*220 FILLER_4_107
*221 FILLER_4_139
*222 FILLER_4_155
*223 FILLER_4_163
*224 FILLER_4_2
*225 FILLER_4_34
*226 FILLER_4_37
*227 FILLER_5_136
*228 FILLER_5_142
*229 FILLER_5_158
*230 FILLER_5_162
*231 FILLER_5_2
*232 FILLER_5_66
*233 FILLER_5_72
*234 FILLER_6_102
*235 FILLER_6_104
*236 FILLER_6_107
*237 FILLER_6_139
*238 FILLER_6_155
*239 FILLER_6_163
*240 FILLER_6_2
*241 FILLER_6_34
*242 FILLER_6_37
*243 FILLER_6_53
*244 FILLER_6_61
*245 FILLER_6_94
*246 FILLER_7_131
*247 FILLER_7_139
*248 FILLER_7_142
*249 FILLER_7_158
*250 FILLER_7_162
*251 FILLER_7_2
*252 FILLER_7_66
*253 FILLER_7_72
*254 FILLER_7_85
*255 FILLER_7_90
*256 FILLER_8_103
*257 FILLER_8_136
*258 FILLER_8_144
*259 FILLER_8_2
*260 FILLER_8_34
*261 FILLER_8_37
*262 FILLER_8_45
*263 FILLER_8_78
*264 FILLER_9_122
*265 FILLER_9_138
*266 FILLER_9_142
*267 FILLER_9_146
*268 FILLER_9_2
*269 FILLER_9_34
*270 FILLER_9_50
*271 FILLER_9_52
*272 FILLER_9_69
*273 FILLER_9_72
*274 FILLER_9_76
*275 FILLER_9_85
*276 PHY_EDGE_ROW_0_Left_23
*277 PHY_EDGE_ROW_0_Right_0
*278 PHY_EDGE_ROW_10_Left_33
*279 PHY_EDGE_ROW_10_Right_10
*280 PHY_EDGE_ROW_11_Left_34
*281 PHY_EDGE_ROW_11_Right_11
*282 PHY_EDGE_ROW_12_Left_35
*283 PHY_EDGE_ROW_12_Right_12
*284 PHY_EDGE_ROW_13_Left_36
*285 PHY_EDGE_ROW_13_Right_13
*286 PHY_EDGE_ROW_14_Left_37
*287 PHY_EDGE_ROW_14_Right_14
*288 PHY_EDGE_ROW_15_Left_38
*289 PHY_EDGE_ROW_15_Right_15
*290 PHY_EDGE_ROW_16_Left_39
*291 PHY_EDGE_ROW_16_Right_16
*292 PHY_EDGE_ROW_17_Left_40
*293 PHY_EDGE_ROW_17_Right_17
*294 PHY_EDGE_ROW_18_Left_41
*295 PHY_EDGE_ROW_18_Right_18
*296 PHY_EDGE_ROW_19_Left_42
*297 PHY_EDGE_ROW_19_Right_19
*298 PHY_EDGE_ROW_1_Left_24
*299 PHY_EDGE_ROW_1_Right_1
*300 PHY_EDGE_ROW_20_Left_43
*301 PHY_EDGE_ROW_20_Right_20
*302 PHY_EDGE_ROW_21_Left_44
*303 PHY_EDGE_ROW_21_Right_21
*304 PHY_EDGE_ROW_22_Left_45
*305 PHY_EDGE_ROW_22_Right_22
*306 PHY_EDGE_ROW_2_Left_25
*307 PHY_EDGE_ROW_2_Right_2
*308 PHY_EDGE_ROW_3_Left_26
*309 PHY_EDGE_ROW_3_Right_3
*310 PHY_EDGE_ROW_4_Left_27
*311 PHY_EDGE_ROW_4_Right_4
*312 PHY_EDGE_ROW_5_Left_28
*313 PHY_EDGE_ROW_5_Right_5
*314 PHY_EDGE_ROW_6_Left_29
*315 PHY_EDGE_ROW_6_Right_6
*316 PHY_EDGE_ROW_7_Left_30
*317 PHY_EDGE_ROW_7_Right_7
*318 PHY_EDGE_ROW_8_Left_31
*319 PHY_EDGE_ROW_8_Right_8
*320 PHY_EDGE_ROW_9_Left_32
*321 PHY_EDGE_ROW_9_Right_9
*322 TAP_TAPCELL_ROW_0_46
*323 TAP_TAPCELL_ROW_0_47
*324 TAP_TAPCELL_ROW_0_48
*325 TAP_TAPCELL_ROW_0_49
*326 TAP_TAPCELL_ROW_10_68
*327 TAP_TAPCELL_ROW_10_69
*328 TAP_TAPCELL_ROW_11_70
*329 TAP_TAPCELL_ROW_11_71
*330 TAP_TAPCELL_ROW_12_72
*331 TAP_TAPCELL_ROW_12_73
*332 TAP_TAPCELL_ROW_13_74
*333 TAP_TAPCELL_ROW_13_75
*334 TAP_TAPCELL_ROW_14_76
*335 TAP_TAPCELL_ROW_14_77
*336 TAP_TAPCELL_ROW_15_78
*337 TAP_TAPCELL_ROW_15_79
*338 TAP_TAPCELL_ROW_16_80
*339 TAP_TAPCELL_ROW_16_81
*340 TAP_TAPCELL_ROW_17_82
*341 TAP_TAPCELL_ROW_17_83
*342 TAP_TAPCELL_ROW_18_84
*343 TAP_TAPCELL_ROW_18_85
*344 TAP_TAPCELL_ROW_19_86
*345 TAP_TAPCELL_ROW_19_87
*346 TAP_TAPCELL_ROW_1_50
*347 TAP_TAPCELL_ROW_1_51
*348 TAP_TAPCELL_ROW_20_88
*349 TAP_TAPCELL_ROW_20_89
*350 TAP_TAPCELL_ROW_21_90
*351 TAP_TAPCELL_ROW_21_91
*352 TAP_TAPCELL_ROW_22_92
*353 TAP_TAPCELL_ROW_22_93
*354 TAP_TAPCELL_ROW_22_94
*355 TAP_TAPCELL_ROW_22_95
*356 TAP_TAPCELL_ROW_2_52
*357 TAP_TAPCELL_ROW_2_53
*358 TAP_TAPCELL_ROW_3_54
*359 TAP_TAPCELL_ROW_3_55
*360 TAP_TAPCELL_ROW_4_56
*361 TAP_TAPCELL_ROW_4_57
*362 TAP_TAPCELL_ROW_5_58
*363 TAP_TAPCELL_ROW_5_59
*364 TAP_TAPCELL_ROW_6_60
*365 TAP_TAPCELL_ROW_6_61
*366 TAP_TAPCELL_ROW_7_62
*367 TAP_TAPCELL_ROW_7_63
*368 TAP_TAPCELL_ROW_8_64
*369 TAP_TAPCELL_ROW_8_65
*370 TAP_TAPCELL_ROW_9_66
*371 TAP_TAPCELL_ROW_9_67
*372 _34_
*373 _35_
*374 _36_
*375 _37_
*376 _38_
*377 _39_
*378 _40_
*379 _41_
*380 _42_
*381 _43_
*382 _44_
*383 _45_
*384 _46_
*385 _47_
*386 _48_
*387 _49_
*388 _50_
*389 _51_
*390 _52_
*391 _53_
*392 _54_
*393 _55_
*394 _56_
*395 _57_
*396 _58_
*397 _59_
*398 _60_
*399 _61_
*400 _62_
*401 _63_
*402 _64_
*403 _65_
*404 _66_
*405 _67_
*406 _68_
*407 _69_
*408 _70_
*409 _71_
*410 _72_
*411 _73_
*412 _74_
*413 _75_
*414 _76_
*415 clkbuf_0_clk_i
*416 clkbuf_1_0__f_clk_i
*417 clkbuf_1_1__f_clk_i
*418 clkload0
*419 input1
*420 input2
*421 output10
*422 output11
*423 output3
*424 output4
*425 output5
*426 output6
*427 output7
*428 output8
*429 output9

*PORTS
clk_i I
count_o[0] O
count_o[1] O
count_o[2] O
count_o[3] O
count_o[4] O
count_o[5] O
count_o[6] O
count_o[7] O
en_i I
ovf_o O
rst_ni I

*D_NET *3 0.00730976
*CONN
*P clk_i I
*I *415:I I *D gf180mcu_fd_sc_mcu7t5v0__clkbuf_16
*CAP
1 clk_i 0.00227695
2 *415:I 0.000176267
3 *3:10 0.00245322
4 *415:I *410:D 0
5 *415:I *55:94 5.20703e-05
6 *3:10 count_o[1] 0.000182211
7 *3:10 *379:A1 3.44989e-05
8 *3:10 *380:A1 4.09451e-05
9 *3:10 *380:A2 4.18157e-05
10 *3:10 *386:A3 0
11 *3:10 *386:A4 5.27574e-05
12 *3:10 *406:CLK 5.49515e-05
13 *3:10 *407:CLK 8.05524e-05
14 *3:10 *424:I 0
15 *3:10 *425:I 0
16 *3:10 *52:16 0
17 *3:10 *52:33 6.17392e-05
18 *3:10 *52:39 0.000126707
19 *3:10 *55:14 0.000391661
20 *3:10 *55:94 9.64232e-05
21 *3:10 *56:16 0.000133888
22 *3:10 *56:44 0.000176924
23 *3:10 *56:46 8.69612e-05
24 *3:10 *57:19 0
25 *3:10 *58:23 0.000118797
26 *3:10 *58:36 0.00067042
*RES
1 clk_i *3:10 25.8089 
2 *3:10 *415:I 6.01914 
*END

*D_NET *4 0.000775941
*CONN
*P count_o[0] O
*I *423:Z O *D gf180mcu_fd_sc_mcu7t5v0__dlyb_1
*CAP
1 count_o[0] 0.000386602
2 *423:Z 0.000386602
3 count_o[0] *52:10 2.73715e-06
*RES
1 *423:Z count_o[0] 7.47886 
*END

*D_NET *5 0.0019535
*CONN
*P count_o[1] O
*I *424:Z O *D gf180mcu_fd_sc_mcu7t5v0__dlyb_1
*CAP
1 count_o[1] 0.000464841
2 *424:Z 0.000464841
3 count_o[1] *420:I 0.000841606
4 *3:10 count_o[1] 0.000182211
*RES
1 *424:Z count_o[1] 14.148 
*END

*D_NET *6 0.00104171
*CONN
*P count_o[2] O
*I *425:Z O *D gf180mcu_fd_sc_mcu7t5v0__dlyb_1
*CAP
1 count_o[2] 0.00043625
2 *425:Z 0.00043625
3 count_o[2] *420:I 0.000169215
*RES
1 *425:Z count_o[2] 12.484 
*END

*D_NET *7 0.00107175
*CONN
*P count_o[3] O
*I *426:Z O *D gf180mcu_fd_sc_mcu7t5v0__dlyb_1
*CAP
1 count_o[3] 0.000535873
2 *426:Z 0.000535873
3 count_o[3] count_o[4] 0
*RES
1 *426:Z count_o[3] 8.4 
*END

*D_NET *8 0.000748007
*CONN
*P count_o[4] O
*I *427:Z O *D gf180mcu_fd_sc_mcu7t5v0__dlyb_1
*CAP
1 count_o[4] 0.000374004
2 *427:Z 0.000374004
3 count_o[4] *427:I 0
4 count_o[3] count_o[4] 0
*RES
1 *427:Z count_o[4] 7.36 
*END

*D_NET *9 0.000716339
*CONN
*P count_o[5] O
*I *428:Z O *D gf180mcu_fd_sc_mcu7t5v0__dlyb_1
*CAP
1 count_o[5] 0.000183531
2 *428:Z 0.000183531
3 count_o[5] count_o[6] 0.000349276
*RES
1 *428:Z count_o[5] 11.3549 
*END

*D_NET *10 0.00100457
*CONN
*P count_o[6] O
*I *429:Z O *D gf180mcu_fd_sc_mcu7t5v0__dlyb_1
*CAP
1 count_o[6] 0.000327645
2 *429:Z 0.000327645
3 count_o[5] count_o[6] 0.000349276
*RES
1 *429:Z count_o[6] 12.1869 
*END

*D_NET *11 0.0010166
*CONN
*P count_o[7] O
*I *421:Z O *D gf180mcu_fd_sc_mcu7t5v0__dlyb_1
*CAP
1 count_o[7] 0.000374042
2 *421:Z 0.000374042
3 count_o[7] ovf_o 0.000268519
*RES
1 *421:Z count_o[7] 12.1869 
*END

*D_NET *12 0.000799959
*CONN
*P en_i I
*I *419:I I *D gf180mcu_fd_sc_mcu7t5v0__dlyb_1
*CAP
1 en_i 0.000399979
2 *419:I 0.000399979
3 *419:I *52:10 0
*RES
1 en_i *419:I 7.58286 
*END

*D_NET *13 0.00111109
*CONN
*P ovf_o O
*I *422:Z O *D gf180mcu_fd_sc_mcu7t5v0__dlyb_1
*CAP
1 ovf_o 0.000421285
2 *422:Z 0.000421285
3 count_o[7] ovf_o 0.000268519
*RES
1 *422:Z ovf_o 12.6029 
*END

*D_NET *14 0.00164589
*CONN
*P rst_ni I
*I *420:I I *D gf180mcu_fd_sc_mcu7t5v0__dlyb_1
*CAP
1 rst_ni 0.000317534
2 *420:I 0.000317534
3 count_o[1] *420:I 0.000841606
4 count_o[2] *420:I 0.000169215
*RES
1 rst_ni *420:I 12.9 
*END

*D_NET *15 0.00129677
*CONN
*I *406:D I *D gf180mcu_fd_sc_mcu7t5v0__dffq_1
*I *381:ZN O *D gf180mcu_fd_sc_mcu7t5v0__aoi22_1
*CAP
1 *406:D 0.00012679
2 *381:ZN 0.00012679
3 *406:D *381:B1 0.000500761
4 *406:D *381:B2 0.000500761
5 *406:D *52:16 4.16649e-05
*RES
1 *381:ZN *406:D 11.288 
*END

*D_NET *16 0.000596504
*CONN
*I *407:D I *D gf180mcu_fd_sc_mcu7t5v0__dffq_1
*I *385:ZN O *D gf180mcu_fd_sc_mcu7t5v0__nor2_1
*CAP
1 *407:D 0.000118774
2 *385:ZN 0.000118774
3 *407:D *389:A1 0.000346997
4 *407:D *389:A2 1.19584e-05
5 *407:D *58:23 0
*RES
1 *385:ZN *407:D 10.144 
*END

*D_NET *17 0.00179474
*CONN
*I *408:D I *D gf180mcu_fd_sc_mcu7t5v0__dffq_1
*I *389:ZN O *D gf180mcu_fd_sc_mcu7t5v0__aoi21_1
*CAP
1 *408:D 0.000254007
2 *389:ZN 0.000254007
3 *408:D *389:A1 0.00035533
4 *408:D *389:A2 0.000888506
5 *408:D *406:CLK 0
6 *408:D *55:33 4.28898e-05
*RES
1 *389:ZN *408:D 21.328 
*END

*D_NET *18 0.000475893
*CONN
*I *409:D I *D gf180mcu_fd_sc_mcu7t5v0__dffq_1
*I *391:ZN O *D gf180mcu_fd_sc_mcu7t5v0__aoi21_1
*CAP
1 *409:D 0.000237946
2 *391:ZN 0.000237946
3 *409:D *388:A1 0
4 *409:D *28:18 0
*RES
1 *391:ZN *409:D 10.768 
*END

*D_NET *19 0.00245812
*CONN
*I *410:D I *D gf180mcu_fd_sc_mcu7t5v0__dffq_1
*I *394:ZN O *D gf180mcu_fd_sc_mcu7t5v0__nor3_1
*CAP
1 *410:D 0.000763579
2 *394:ZN 0.000763579
3 *410:D *393:A3 9.34334e-05
4 *410:D *394:A2 0
5 *410:D *396:A4 2.73715e-06
6 *410:D *410:CLK 0
7 *410:D *28:8 0.000194511
8 *410:D *36:12 2.39167e-05
9 *410:D *37:47 0.00033778
10 *410:D *50:45 0
11 *410:D *59:8 0.000200177
12 *410:D *59:14 7.84084e-05
13 *415:I *410:D 0
*RES
1 *394:ZN *410:D 15.656 
*END

*D_NET *20 0.0015245
*CONN
*I *411:D I *D gf180mcu_fd_sc_mcu7t5v0__dffq_1
*I *397:Z O *D gf180mcu_fd_sc_mcu7t5v0__and3_1
*CAP
1 *411:D 0.0002813
2 *397:Z 0.0002813
3 *411:D *396:A1 1.823e-05
4 *411:D *397:A2 2.98389e-05
5 *411:D *398:A3 7.41585e-05
6 *411:D *400:A2 0.000346267
7 *411:D *400:C 0
8 *411:D *61:12 0.000493408
*RES
1 *397:Z *411:D 21.952 
*END

*D_NET *21 0.000756626
*CONN
*I *412:D I *D gf180mcu_fd_sc_mcu7t5v0__dffq_1
*I *400:ZN O *D gf180mcu_fd_sc_mcu7t5v0__aoi211_1
*CAP
1 *412:D 0.000312608
2 *400:ZN 0.000312608
3 *412:D *400:A1 9.70289e-05
4 *412:D *61:12 3.43806e-05
*RES
1 *400:ZN *412:D 20.392 
*END

*D_NET *22 0.000637523
*CONN
*I *413:D I *D gf180mcu_fd_sc_mcu7t5v0__dffq_1
*I *403:Z O *D gf180mcu_fd_sc_mcu7t5v0__and3_1
*CAP
1 *413:D 0.000257735
2 *403:Z 0.000257735
3 *413:D *414:D 0
4 *413:D *51:16 0.000122054
*RES
1 *403:Z *413:D 11.08 
*END

*D_NET *23 0.0018915
*CONN
*I *414:D I *D gf180mcu_fd_sc_mcu7t5v0__dffq_1
*I *405:ZN O *D gf180mcu_fd_sc_mcu7t5v0__oai21_1
*CAP
1 *414:D 0.000587781
2 *405:ZN 0.000587781
3 *414:D *404:A1 0
4 *414:D *404:A2 0
5 *414:D *405:A1 0.000337769
6 *414:D *405:B 4.96201e-05
7 *414:D *414:CLK 0
8 *414:D *24:10 0.000328552
9 *414:D *51:16 0
10 *413:D *414:D 0
*RES
1 *405:ZN *414:D 13.784 
*END

*D_NET *24 0.00501486
*CONN
*I *401:B I *D gf180mcu_fd_sc_mcu7t5v0__oai31_1
*I *402:A1 I *D gf180mcu_fd_sc_mcu7t5v0__or4_1
*I *372:ZN O *D gf180mcu_fd_sc_mcu7t5v0__clkinv_1
*CAP
1 *401:B 0.000272077
2 *402:A1 0.000101934
3 *372:ZN 0.000306111
4 *24:10 0.000680122
5 *401:B *397:A1 0.000927923
6 *401:B *400:C 1.07369e-05
7 *401:B *402:A3 5.13239e-06
8 *401:B *402:A4 0.00079089
9 *401:B *414:CLK 5.77431e-06
10 *401:B *416:I 5.33294e-05
11 *401:B *51:16 1.01781e-05
12 *401:B *55:72 0.000529205
13 *402:A1 *404:A2 0.000125345
14 *402:A1 *55:72 0.00024405
15 *24:10 *404:A2 9.84299e-05
16 *24:10 *405:A1 0.000286298
17 *24:10 *405:B 0.000214071
18 *24:10 *55:72 2.46957e-05
19 *414:D *24:10 0.000328552
*RES
1 *372:ZN *24:10 13.16 
2 *24:10 *402:A1 10.56 
3 *24:10 *401:B 13.576 
*END

*D_NET *25 0.00161741
*CONN
*I *400:A1 I *D gf180mcu_fd_sc_mcu7t5v0__aoi211_1
*I *373:ZN O *D gf180mcu_fd_sc_mcu7t5v0__clkinv_1
*CAP
1 *400:A1 0.000424039
2 *373:ZN 0.000424039
3 *400:A1 *395:A1 7.40928e-05
4 *400:A1 *396:A1 0.000100076
5 *400:A1 *400:A2 0.000325834
6 *400:A1 *412:CLK 3.46907e-05
7 *400:A1 *51:34 5.37778e-05
8 *400:A1 *61:12 8.3831e-05
9 *412:D *400:A1 9.70289e-05
*RES
1 *373:ZN *400:A1 22.056 
*END

*D_NET *26 0.000179632
*CONN
*I *395:B I *D gf180mcu_fd_sc_mcu7t5v0__oai31_1
*I *374:ZN O *D gf180mcu_fd_sc_mcu7t5v0__clkinv_1
*CAP
1 *395:B 8.77363e-05
2 *374:ZN 8.77363e-05
3 *395:B *400:A2 4.15898e-06
*RES
1 *374:ZN *395:B 9.728 
*END

*D_NET *27 0.00207998
*CONN
*I *395:A1 I *D gf180mcu_fd_sc_mcu7t5v0__oai31_1
*I *393:A1 I *D gf180mcu_fd_sc_mcu7t5v0__nor3_1
*I *375:ZN O *D gf180mcu_fd_sc_mcu7t5v0__clkinv_1
*CAP
1 *395:A1 0.000340121
2 *393:A1 0.000140548
3 *375:ZN 3.39097e-05
4 *27:8 0.000514579
5 *393:A1 *426:I 9.95085e-05
6 *393:A1 *28:51 0.000225236
7 *395:A1 *396:A1 8.12144e-06
8 *395:A1 *400:A2 0
9 *395:A1 *400:C 0.000491544
10 *395:A1 *28:51 0.000152316
11 *400:A1 *395:A1 7.40928e-05
*RES
1 *375:ZN *27:8 9.312 
2 *27:8 *393:A1 10.352 
3 *27:8 *395:A1 11.912 
*END

*D_NET *28 0.0114517
*CONN
*I *401:A1 I *D gf180mcu_fd_sc_mcu7t5v0__oai31_1
*I *402:A2 I *D gf180mcu_fd_sc_mcu7t5v0__or4_1
*I *399:A1 I *D gf180mcu_fd_sc_mcu7t5v0__nor3_1
*I *395:A2 I *D gf180mcu_fd_sc_mcu7t5v0__oai31_1
*I *393:A2 I *D gf180mcu_fd_sc_mcu7t5v0__nor3_1
*I *390:A1 I *D gf180mcu_fd_sc_mcu7t5v0__oai21_1
*I *391:A1 I *D gf180mcu_fd_sc_mcu7t5v0__aoi21_1
*I *376:ZN O *D gf180mcu_fd_sc_mcu7t5v0__clkinv_1
*CAP
1 *401:A1 0.000227336
2 *402:A2 0.000266936
3 *399:A1 3.6366e-05
4 *395:A2 0
5 *393:A2 2.43486e-05
6 *390:A1 0
7 *391:A1 0.000182713
8 *376:ZN 8.80365e-06
9 *28:66 0.00055109
10 *28:60 0.000563728
11 *28:51 0.000394757
12 *28:36 0.00054253
13 *28:18 0.000840158
14 *28:8 0.000878277
15 *391:A1 *388:A1 0.000534077
16 *391:A1 *391:A2 3.646e-05
17 *391:A1 *409:CLK 0
18 *393:A2 *393:A3 4.63309e-05
19 *393:A2 *59:18 0.000194511
20 *401:A1 *397:A1 0.000346997
21 *401:A1 *398:A3 0.000310596
22 *401:A1 *44:14 1.77303e-05
23 *401:A1 *51:16 2.36218e-05
24 *402:A2 *402:A3 0.00127418
25 *402:A2 *402:A4 0.000208013
26 *402:A2 *416:I 6.38863e-05
27 *402:A2 *30:8 7.95232e-06
28 *402:A2 *37:84 0.000186457
29 *28:8 *59:8 0.000194511
30 *28:18 *409:CLK 3.80112e-05
31 *28:18 *410:CLK 9.49671e-05
32 *28:18 *50:45 0.000207716
33 *28:36 *59:14 5.59317e-05
34 *28:51 *396:A1 9.84133e-05
35 *28:51 *400:B 0.000569975
36 *28:51 *400:C 0.000215267
37 *28:51 *426:I 6.9711e-06
38 *28:51 *59:14 6.96644e-06
39 *28:60 *400:B 0.000435405
40 *28:60 *400:C 0.000168188
41 *28:66 *394:A3 2.52541e-05
42 *28:66 *395:A3 0.000103788
43 *28:66 *398:A3 0.000343529
44 *28:66 *400:C 0
45 *28:66 *30:8 2.81522e-06
46 *28:66 *37:62 0.000107648
47 *28:66 *37:73 0.00038468
48 *28:66 *37:84 4.81999e-05
49 *28:66 *44:14 3.55699e-06
50 *393:A1 *28:51 0.000225236
51 *395:A1 *28:51 0.000152316
52 *409:D *28:18 0
53 *410:D *28:8 0.000194511
*RES
1 *376:ZN *28:8 9.52 
2 *28:8 *28:18 9.492 
3 *28:18 *391:A1 15.06 
4 *28:18 *390:A1 4.5 
5 *28:8 *28:36 1.352 
6 *28:36 *393:A2 9.52 
7 *28:36 *28:51 8.66 
8 *28:51 *395:A2 4.5 
9 *28:51 *28:60 5.852 
10 *28:60 *28:66 7.204 
11 *28:66 *399:A1 4.812 
12 *28:66 *402:A2 8.764 
13 *28:60 *401:A1 11.184 
*END

*D_NET *29 0.00245489
*CONN
*I *389:A1 I *D gf180mcu_fd_sc_mcu7t5v0__aoi21_1
*I *377:ZN O *D gf180mcu_fd_sc_mcu7t5v0__clkinv_1
*CAP
1 *389:A1 0.000865048
2 *377:ZN 0.000865048
3 *389:A1 *389:A2 2.24654e-05
4 *389:A1 *58:6 0
5 *389:A1 *58:23 0
6 *407:D *389:A1 0.000346997
7 *408:D *389:A1 0.00035533
*RES
1 *377:ZN *389:A1 16.488 
*END

*D_NET *30 0.00770357
*CONN
*I *405:A1 I *D gf180mcu_fd_sc_mcu7t5v0__oai21_1
*I *400:C I *D gf180mcu_fd_sc_mcu7t5v0__aoi211_1
*I *394:A1 I *D gf180mcu_fd_sc_mcu7t5v0__nor3_1
*I *378:ZN O *D gf180mcu_fd_sc_mcu7t5v0__clkinv_1
*CAP
1 *405:A1 0.000581316
2 *400:C 0.000703045
3 *394:A1 0.000154157
4 *378:ZN 0
5 *30:8 0.00134115
6 *30:4 0.00106527
7 *394:A1 *37:62 0
8 *400:C *397:A1 0.000270818
9 *400:C *397:A2 0.000146714
10 *400:C *400:A2 0
11 *400:C *400:B 0.000134699
12 *400:C *401:A2 8.58618e-05
13 *400:C *402:A3 6.17392e-05
14 *400:C *402:A4 6.64873e-05
15 *400:C *37:62 0
16 *400:C *37:73 2.36218e-05
17 *400:C *44:14 7.3514e-05
18 *405:A1 *402:A4 0
19 *405:A1 *405:A2 0.00013448
20 *405:A1 *405:B 0.000159505
21 *405:A1 *51:16 0
22 *405:A1 *55:59 0.000116476
23 *405:A1 *55:72 0.000862909
24 *30:8 *402:A3 0.000201232
25 *395:A1 *400:C 0.000491544
26 *401:B *400:C 1.07369e-05
27 *402:A2 *30:8 7.95232e-06
28 *411:D *400:C 0
29 *414:D *405:A1 0.000337769
30 *24:10 *405:A1 0.000286298
31 *28:51 *400:C 0.000215267
32 *28:60 *400:C 0.000168188
33 *28:66 *400:C 0
34 *28:66 *30:8 2.81522e-06
*RES
1 *378:ZN *30:4 4.5 
2 *30:4 *30:8 8.14 
3 *30:8 *394:A1 10.144 
4 *30:8 *400:C 16.28 
5 *30:4 *405:A1 20.156 
*END

*D_NET *31 0.00313036
*CONN
*I *381:B1 I *D gf180mcu_fd_sc_mcu7t5v0__aoi22_1
*I *404:A2 I *D gf180mcu_fd_sc_mcu7t5v0__nand2_1
*I *379:ZN O *D gf180mcu_fd_sc_mcu7t5v0__nand2_1
*CAP
1 *381:B1 0.00010443
2 *404:A2 0.000477358
3 *379:ZN 8.87861e-05
4 *31:6 0.000670574
5 *381:B1 *381:B2 7.2883e-05
6 *381:B1 *52:16 0.000252719
7 *404:A2 *379:A1 0.000187579
8 *404:A2 *404:A1 4.07478e-05
9 *404:A2 *414:CLK 0.000113027
10 *404:A2 *52:16 0.000199998
11 *404:A2 *55:48 3.37878e-06
12 *404:A2 *55:59 2.57864e-05
13 *404:A2 *55:72 1.8196e-05
14 *404:A2 *56:10 0
15 *404:A2 *56:12 0
16 *31:6 *379:A1 6.06017e-05
17 *31:6 *381:B2 8.97565e-05
18 *402:A1 *404:A2 0.000125345
19 *406:D *381:B1 0.000500761
20 *414:D *404:A2 0
21 *24:10 *404:A2 9.84299e-05
*RES
1 *379:ZN *31:6 5.228 
2 *31:6 *404:A2 18.7 
3 *31:6 *381:B1 6.476 
*END

*D_NET *32 0.00192547
*CONN
*I *381:B2 I *D gf180mcu_fd_sc_mcu7t5v0__aoi22_1
*I *380:ZN O *D gf180mcu_fd_sc_mcu7t5v0__nand2_1
*CAP
1 *381:B2 0.000146349
2 *380:ZN 0.000146349
3 *381:B2 *380:A1 0.000245642
4 *381:B2 *56:16 0.000723727
5 *381:B1 *381:B2 7.2883e-05
6 *406:D *381:B2 0.000500761
7 *31:6 *381:B2 8.97565e-05
*RES
1 *380:ZN *381:B2 11.912 
*END

*D_NET *33 0.00140668
*CONN
*I *385:A1 I *D gf180mcu_fd_sc_mcu7t5v0__nor2_1
*I *382:ZN O *D gf180mcu_fd_sc_mcu7t5v0__aoi21_1
*CAP
1 *385:A1 2.8652e-05
2 *382:ZN 2.8652e-05
3 *385:A1 *55:14 0.000435869
4 *385:A1 *55:33 0.00023882
5 *385:A1 *58:36 0.000674689
*RES
1 *382:ZN *385:A1 19.768 
*END

*D_NET *34 0.00395523
*CONN
*I *384:A2 I *D gf180mcu_fd_sc_mcu7t5v0__nand2_1
*I *389:A2 I *D gf180mcu_fd_sc_mcu7t5v0__aoi21_1
*I *383:ZN O *D gf180mcu_fd_sc_mcu7t5v0__nand3_1
*CAP
1 *384:A2 2.91473e-05
2 *389:A2 0.00062063
3 *383:ZN 3.36504e-05
4 *34:6 0.000683428
5 *384:A2 *382:B 2.46717e-05
6 *384:A2 *383:A1 1.12327e-05
7 *384:A2 *57:25 5.77431e-06
8 *389:A2 *382:A1 1.71326e-05
9 *389:A2 *382:B 4.09978e-05
10 *389:A2 *383:A1 5.82674e-05
11 *389:A2 *384:A1 0.000178559
12 *389:A2 *37:6 3.2098e-05
13 *389:A2 *50:8 0.0010392
14 *389:A2 *52:39 0.000146681
15 *389:A2 *55:33 0.000104636
16 *34:6 *382:A1 6.18411e-06
17 *389:A1 *389:A2 2.24654e-05
18 *407:D *389:A2 1.19584e-05
19 *408:D *389:A2 0.000888506
*RES
1 *383:ZN *34:6 5.02 
2 *34:6 *389:A2 11.884 
3 *34:6 *384:A2 4.812 
*END

*D_NET *35 0.000636419
*CONN
*I *385:A2 I *D gf180mcu_fd_sc_mcu7t5v0__nor2_1
*I *384:ZN O *D gf180mcu_fd_sc_mcu7t5v0__nand2_1
*CAP
1 *385:A2 0.000160787
2 *384:ZN 0.000160787
3 *385:A2 *382:B 0.000314845
*RES
1 *384:ZN *385:A2 10.248 
*END

*D_NET *36 0.00313648
*CONN
*I *396:A4 I *D gf180mcu_fd_sc_mcu7t5v0__nand4_1
*I *392:A2 I *D gf180mcu_fd_sc_mcu7t5v0__aoi21_1
*I *386:Z O *D gf180mcu_fd_sc_mcu7t5v0__and4_1
*CAP
1 *396:A4 0.000127826
2 *392:A2 0
3 *386:Z 0.000404852
4 *36:12 0.000532678
5 *396:A4 *392:A1 0.000591484
6 *396:A4 *393:A3 0.000139032
7 *396:A4 *394:A2 1.71326e-05
8 *36:12 *390:B 0.000113016
9 *36:12 *37:47 0.000274054
10 *36:12 *37:62 3.35294e-05
11 *36:12 *55:94 0.000876224
12 *410:D *396:A4 2.73715e-06
13 *410:D *36:12 2.39167e-05
*RES
1 *386:Z *36:12 18.076 
2 *36:12 *392:A2 4.5 
3 *36:12 *396:A4 6.58 
*END

*D_NET *37 0.0146256
*CONN
*I *401:A2 I *D gf180mcu_fd_sc_mcu7t5v0__oai31_1
*I *402:A3 I *D gf180mcu_fd_sc_mcu7t5v0__or4_1
*I *399:A2 I *D gf180mcu_fd_sc_mcu7t5v0__nor3_1
*I *395:A3 I *D gf180mcu_fd_sc_mcu7t5v0__oai31_1
*I *393:A3 I *D gf180mcu_fd_sc_mcu7t5v0__nor3_1
*I *390:A2 I *D gf180mcu_fd_sc_mcu7t5v0__oai21_1
*I *391:A2 I *D gf180mcu_fd_sc_mcu7t5v0__aoi21_1
*I *388:A2 I *D gf180mcu_fd_sc_mcu7t5v0__nand2_1
*I *387:ZN O *D gf180mcu_fd_sc_mcu7t5v0__nand4_1
*CAP
1 *401:A2 0.000274189
2 *402:A3 0.000440121
3 *399:A2 0
4 *395:A3 0.000173282
5 *393:A3 0.000340146
6 *390:A2 0
7 *391:A2 0.000238038
8 *388:A2 3.38554e-05
9 *387:ZN 0.000585121
10 *37:84 0.000784188
11 *37:73 0.00010394
12 *37:62 0.000557759
13 *37:47 0.0011931
14 *37:17 0.000393919
15 *37:15 0.000737217
16 *37:6 0.000697769
17 *388:A2 *388:A1 5.47431e-06
18 *388:A2 *391:B 0
19 *391:A2 *388:A1 0.00038755
20 *391:A2 *389:B 0
21 *391:A2 *409:CLK 0
22 *393:A3 *392:A1 2.36218e-05
23 *393:A3 *394:A2 2.81522e-06
24 *393:A3 *394:A3 1.41642e-05
25 *393:A3 *59:8 0.000259114
26 *393:A3 *59:18 2.98701e-05
27 *395:A3 *394:A3 0
28 *395:A3 *400:B 0.00023738
29 *395:A3 *43:10 0.00012524
30 *395:A3 *60:21 5.77431e-06
31 *401:A2 *402:A4 3.41714e-05
32 *401:A2 *403:A2 6.06017e-05
33 *401:A2 *405:A2 0
34 *401:A2 *44:14 9.4254e-05
35 *401:A2 *51:16 0.000178541
36 *402:A3 *379:A2 0
37 *402:A3 *416:I 0
38 *37:6 *386:A1 0.0016009
39 *37:6 *386:A2 2.91549e-05
40 *37:6 *387:A1 0.000106926
41 *37:6 *389:B 0
42 *37:6 *50:8 2.86948e-05
43 *37:6 *50:45 0
44 *37:6 *52:33 0.000369987
45 *37:6 *55:33 0.000164215
46 *37:15 *391:B 0
47 *37:17 *388:A1 2.32529e-05
48 *37:17 *50:45 5.6593e-05
49 *37:47 *388:A1 3.13582e-05
50 *37:47 *394:A2 0
51 *37:62 *398:A3 0.000137027
52 *37:73 *400:B 0.000256285
53 *37:84 *400:B 5.47431e-06
54 *37:84 *402:A4 0.00032924
55 *389:A2 *37:6 3.2098e-05
56 *391:A1 *391:A2 3.646e-05
57 *393:A2 *393:A3 4.63309e-05
58 *394:A1 *37:62 0
59 *396:A4 *393:A3 0.000139032
60 *400:C *401:A2 8.58618e-05
61 *400:C *402:A3 6.17392e-05
62 *400:C *37:62 0
63 *400:C *37:73 2.36218e-05
64 *401:B *402:A3 5.13239e-06
65 *402:A2 *402:A3 0.00127418
66 *402:A2 *37:84 0.000186457
67 *410:D *393:A3 9.34334e-05
68 *410:D *37:47 0.00033778
69 *28:66 *395:A3 0.000103788
70 *28:66 *37:62 0.000107648
71 *28:66 *37:73 0.00038468
72 *28:66 *37:84 4.81999e-05
73 *30:8 *402:A3 0.000201232
74 *36:12 *37:47 0.000274054
75 *36:12 *37:62 3.35294e-05
*RES
1 *387:ZN *37:6 11.468 
2 *37:6 *388:A2 4.812 
3 *37:6 *37:15 0.728 
4 *37:15 *37:17 1.144 
5 *37:17 *391:A2 15.58 
6 *37:17 *390:A2 4.5 
7 *37:15 *37:47 17.972 
8 *37:47 *393:A3 12.744 
9 *37:47 *37:62 7.1 
10 *37:62 *395:A3 6.372 
11 *37:62 *37:73 1.144 
12 *37:73 *399:A2 4.5 
13 *37:73 *37:84 5.748 
14 *37:84 *402:A3 14.304 
15 *37:84 *401:A2 11.496 
*END

*D_NET *38 0.000827872
*CONN
*I *389:B I *D gf180mcu_fd_sc_mcu7t5v0__aoi21_1
*I *388:ZN O *D gf180mcu_fd_sc_mcu7t5v0__nand2_1
*CAP
1 *389:B 0.000413936
2 *388:ZN 0.000413936
3 *391:A2 *389:B 0
4 *37:6 *389:B 0
*RES
1 *388:ZN *389:B 20.912 
*END

*D_NET *39 0.000218196
*CONN
*I *391:B I *D gf180mcu_fd_sc_mcu7t5v0__aoi21_1
*I *390:ZN O *D gf180mcu_fd_sc_mcu7t5v0__oai21_1
*CAP
1 *391:B 0.000109098
2 *390:ZN 0.000109098
3 *388:A2 *391:B 0
4 *37:15 *391:B 0
*RES
1 *390:ZN *391:B 9.936 
*END

*D_NET *40 0.000731461
*CONN
*I *394:A2 I *D gf180mcu_fd_sc_mcu7t5v0__nor3_1
*I *392:ZN O *D gf180mcu_fd_sc_mcu7t5v0__aoi21_1
*CAP
1 *394:A2 0.000146119
2 *392:ZN 0.000146119
3 *394:A2 *394:A3 0.000419276
4 *393:A3 *394:A2 2.81522e-06
5 *396:A4 *394:A2 1.71326e-05
6 *410:D *394:A2 0
7 *37:47 *394:A2 0
*RES
1 *392:ZN *394:A2 10.456 
*END

*D_NET *41 0.00250941
*CONN
*I *394:A3 I *D gf180mcu_fd_sc_mcu7t5v0__nor3_1
*I *393:ZN O *D gf180mcu_fd_sc_mcu7t5v0__nor3_1
*CAP
1 *394:A3 0.00026666
2 *393:ZN 0.00026666
3 *394:A3 *392:A1 0.000660014
4 *394:A3 *392:B 0
5 *394:A3 *396:A3 1.71326e-05
6 *394:A3 *59:18 0.000122054
7 *394:A3 *60:14 0.000334704
8 *394:A3 *60:21 0.000383488
9 *393:A3 *394:A3 1.41642e-05
10 *394:A2 *394:A3 0.000419276
11 *395:A3 *394:A3 0
12 *28:66 *394:A3 2.52541e-05
*RES
1 *393:ZN *394:A3 13.68 
*END

*D_NET *42 0.000512093
*CONN
*I *397:A2 I *D gf180mcu_fd_sc_mcu7t5v0__and3_1
*I *395:ZN O *D gf180mcu_fd_sc_mcu7t5v0__oai31_1
*CAP
1 *397:A2 0.000115021
2 *395:ZN 0.000115021
3 *397:A2 *397:A3 0.000103788
4 *397:A2 *400:A2 1.70957e-06
5 *400:C *397:A2 0.000146714
6 *411:D *397:A2 2.98389e-05
*RES
1 *395:ZN *397:A2 10.144 
*END

*D_NET *43 0.00380643
*CONN
*I *400:A2 I *D gf180mcu_fd_sc_mcu7t5v0__aoi211_1
*I *397:A3 I *D gf180mcu_fd_sc_mcu7t5v0__and3_1
*I *396:ZN O *D gf180mcu_fd_sc_mcu7t5v0__nand4_1
*CAP
1 *400:A2 0.000450444
2 *397:A3 3.61831e-05
3 *396:ZN 0.000280877
4 *43:10 0.000767504
5 *400:A2 *396:A1 0
6 *400:A2 *398:A3 0.000441747
7 *400:A2 *412:CLK 0
8 *400:A2 *51:34 2.39156e-06
9 *43:10 *396:A1 0
10 *43:10 *398:A3 0.000800605
11 *43:10 *400:B 1.57479e-05
12 *43:10 *60:21 0.000103933
13 *395:A1 *400:A2 0
14 *395:A3 *43:10 0.00012524
15 *395:B *400:A2 4.15898e-06
16 *397:A2 *397:A3 0.000103788
17 *397:A2 *400:A2 1.70957e-06
18 *400:A1 *400:A2 0.000325834
19 *400:C *400:A2 0
20 *411:D *400:A2 0.000346267
*RES
1 *396:ZN *43:10 12.328 
2 *43:10 *397:A3 9.312 
3 *43:10 *400:A2 13.368 
*END

*D_NET *44 0.00522928
*CONN
*I *401:A3 I *D gf180mcu_fd_sc_mcu7t5v0__oai31_1
*I *402:A4 I *D gf180mcu_fd_sc_mcu7t5v0__or4_1
*I *399:A3 I *D gf180mcu_fd_sc_mcu7t5v0__nor3_1
*I *398:ZN O *D gf180mcu_fd_sc_mcu7t5v0__nand3_1
*CAP
1 *401:A3 0
2 *402:A4 0.000407614
3 *399:A3 0
4 *398:ZN 0.000543916
5 *44:14 0.00067416
6 *44:10 0.000810462
7 *402:A4 *416:I 0.000432017
8 *44:10 *398:A2 0.000122244
9 *44:10 *51:10 0.000328734
10 *44:10 *51:16 0.000246397
11 *44:10 *51:32 0
12 *44:10 *51:34 0
13 *44:14 *398:A3 0
14 *44:14 *51:16 4.58772e-05
15 *400:C *402:A4 6.64873e-05
16 *400:C *44:14 7.3514e-05
17 *401:A1 *44:14 1.77303e-05
18 *401:A2 *402:A4 3.41714e-05
19 *401:A2 *44:14 9.4254e-05
20 *401:B *402:A4 0.00079089
21 *402:A2 *402:A4 0.000208013
22 *405:A1 *402:A4 0
23 *28:66 *44:14 3.55699e-06
24 *37:84 *402:A4 0.00032924
*RES
1 *398:ZN *44:10 14.2 
2 *44:10 *44:14 6.684 
3 *44:14 *399:A3 4.5 
4 *44:14 *402:A4 18.492 
5 *44:10 *401:A3 9 
*END

*D_NET *45 0.00273511
*CONN
*I *400:B I *D gf180mcu_fd_sc_mcu7t5v0__aoi211_1
*I *399:ZN O *D gf180mcu_fd_sc_mcu7t5v0__nor3_1
*CAP
1 *400:B 0.000526691
2 *399:ZN 0.000526691
3 *400:B *60:10 2.67638e-05
4 *400:B *60:14 0
5 *400:B *60:21 0
6 *395:A3 *400:B 0.00023738
7 *400:C *400:B 0.000134699
8 *28:51 *400:B 0.000569975
9 *28:60 *400:B 0.000435405
10 *37:73 *400:B 0.000256285
11 *37:84 *400:B 5.47431e-06
12 *43:10 *400:B 1.57479e-05
*RES
1 *399:ZN *400:B 15.032 
*END

*D_NET *46 0.00151533
*CONN
*I *403:A2 I *D gf180mcu_fd_sc_mcu7t5v0__and3_1
*I *401:ZN O *D gf180mcu_fd_sc_mcu7t5v0__oai31_1
*CAP
1 *403:A2 0.000122387
2 *401:ZN 0.000122387
3 *403:A2 *397:A1 0.000968671
4 *403:A2 *51:16 0.000200534
5 *403:A2 *55:72 4.07478e-05
6 *401:A2 *403:A2 6.06017e-05
*RES
1 *401:ZN *403:A2 11.6 
*END
