*SPEF "ieee 1481-1999"
*DESIGN "counter_8bit"
*DATE "22:32:10 Monday May 11, 2026"
*VENDOR "The OpenROAD Project"
*PROGRAM "OpenROAD"
*VERSION "dcf36133a369abc8f3c5e5738cd4d82e4903c0e0"
*DESIGN_FLOW "NAME_SCOPE LOCAL" "PIN_CAP NONE"
*DIVIDER /
*DELIMITER :
*BUS_DELIMITER []
*T_UNIT 1 NS
*C_UNIT 1 PF
*R_UNIT 1 OHM
*L_UNIT 1 HENRY

*NAME_MAP
*3 clk_i
*4 count_o[0]
*5 count_o[1]
*6 count_o[2]
*7 count_o[3]
*8 count_o[4]
*9 count_o[5]
*10 count_o[6]
*11 count_o[7]
*12 en_i
*13 ovf_o
*14 rst_ni
*15 _00_
*16 _01_
*17 _02_
*18 _03_
*19 _04_
*20 _05_
*21 _06_
*22 _07_
*23 _08_
*24 _09_
*25 _10_
*26 _11_
*27 _12_
*28 _13_
*29 _14_
*30 _15_
*31 _16_
*32 _17_
*33 _18_
*34 _19_
*35 _20_
*36 _21_
*37 _22_
*38 _23_
*39 _24_
*40 _25_
*41 _26_
*42 _27_
*43 _28_
*44 _29_
*45 _30_
*46 _31_
*47 _32_
*48 _33_
*49 clknet_0_clk_i
*50 clknet_1_0__leaf_clk_i
*51 clknet_1_1__leaf_clk_i
*52 net1
*53 net10
*54 net11
*55 net2
*56 net3
*57 net4
*58 net5
*59 net6
*60 net7
*61 net8
*62 net9
*63 FILLER_0_104
*64 FILLER_0_112
*65 FILLER_0_116
*66 FILLER_0_118
*67 FILLER_0_2
*68 FILLER_0_36
*69 FILLER_0_70
*70 FILLER_10_102
*71 FILLER_10_104
*72 FILLER_10_107
*73 FILLER_10_115
*74 FILLER_10_23
*75 FILLER_10_37
*76 FILLER_11_87
*77 FILLER_12_107
*78 FILLER_12_115
*79 FILLER_12_2
*80 FILLER_12_32
*81 FILLER_12_34
*82 FILLER_12_47
*83 FILLER_12_51
*84 FILLER_12_89
*85 FILLER_13_104
*86 FILLER_13_112
*87 FILLER_13_116
*88 FILLER_13_118
*89 FILLER_13_24
*90 FILLER_13_56
*91 FILLER_13_64
*92 FILLER_13_68
*93 FILLER_13_72
*94 FILLER_14_101
*95 FILLER_14_107
*96 FILLER_14_115
*97 FILLER_14_18
*98 FILLER_14_34
*99 FILLER_14_37
*100 FILLER_15_104
*101 FILLER_15_112
*102 FILLER_15_116
*103 FILLER_15_118
*104 FILLER_15_2
*105 FILLER_15_66
*106 FILLER_15_72
*107 FILLER_16_101
*108 FILLER_16_104
*109 FILLER_16_112
*110 FILLER_16_116
*111 FILLER_16_118
*112 FILLER_16_2
*113 FILLER_16_36
*114 FILLER_16_70
*115 FILLER_16_74
*116 FILLER_16_76
*117 FILLER_16_93
*118 FILLER_1_104
*119 FILLER_1_112
*120 FILLER_1_116
*121 FILLER_1_118
*122 FILLER_1_2
*123 FILLER_1_34
*124 FILLER_1_50
*125 FILLER_1_67
*126 FILLER_1_69
*127 FILLER_1_72
*128 FILLER_2_104
*129 FILLER_2_107
*130 FILLER_2_115
*131 FILLER_2_2
*132 FILLER_2_34
*133 FILLER_2_37
*134 FILLER_2_45
*135 FILLER_2_49
*136 FILLER_2_80
*137 FILLER_2_96
*138 FILLER_3_104
*139 FILLER_3_112
*140 FILLER_3_116
*141 FILLER_3_118
*142 FILLER_3_18
*143 FILLER_3_2
*144 FILLER_3_26
*145 FILLER_3_30
*146 FILLER_3_60
*147 FILLER_3_68
*148 FILLER_3_72
*149 FILLER_4_10
*150 FILLER_4_103
*151 FILLER_4_107
*152 FILLER_4_115
*153 FILLER_4_19
*154 FILLER_4_2
*155 FILLER_4_87
*156 FILLER_5_112
*157 FILLER_5_116
*158 FILLER_5_118
*159 FILLER_5_31
*160 FILLER_5_35
*161 FILLER_5_59
*162 FILLER_5_67
*163 FILLER_5_69
*164 FILLER_5_80
*165 FILLER_6_101
*166 FILLER_6_107
*167 FILLER_6_115
*168 FILLER_6_14
*169 FILLER_6_2
*170 FILLER_6_60
*171 FILLER_7_23
*172 FILLER_7_39
*173 FILLER_7_50
*174 FILLER_7_58
*175 FILLER_7_83
*176 FILLER_7_99
*177 FILLER_8_103
*178 FILLER_8_107
*179 FILLER_8_115
*180 FILLER_8_31
*181 FILLER_8_37
*182 FILLER_8_89
*183 FILLER_8_95
*184 FILLER_9_101
*185 FILLER_9_117
*186 FILLER_9_31
*187 FILLER_9_47
*188 FILLER_9_55
*189 FILLER_9_57
*190 PHY_EDGE_ROW_0_Left_17
*191 PHY_EDGE_ROW_0_Right_0
*192 PHY_EDGE_ROW_10_Left_27
*193 PHY_EDGE_ROW_10_Right_10
*194 PHY_EDGE_ROW_11_Left_28
*195 PHY_EDGE_ROW_11_Right_11
*196 PHY_EDGE_ROW_12_Left_29
*197 PHY_EDGE_ROW_12_Right_12
*198 PHY_EDGE_ROW_13_Left_30
*199 PHY_EDGE_ROW_13_Right_13
*200 PHY_EDGE_ROW_14_Left_31
*201 PHY_EDGE_ROW_14_Right_14
*202 PHY_EDGE_ROW_15_Left_32
*203 PHY_EDGE_ROW_15_Right_15
*204 PHY_EDGE_ROW_16_Left_33
*205 PHY_EDGE_ROW_16_Right_16
*206 PHY_EDGE_ROW_1_Left_18
*207 PHY_EDGE_ROW_1_Right_1
*208 PHY_EDGE_ROW_2_Left_19
*209 PHY_EDGE_ROW_2_Right_2
*210 PHY_EDGE_ROW_3_Left_20
*211 PHY_EDGE_ROW_3_Right_3
*212 PHY_EDGE_ROW_4_Left_21
*213 PHY_EDGE_ROW_4_Right_4
*214 PHY_EDGE_ROW_5_Left_22
*215 PHY_EDGE_ROW_5_Right_5
*216 PHY_EDGE_ROW_6_Left_23
*217 PHY_EDGE_ROW_6_Right_6
*218 PHY_EDGE_ROW_7_Left_24
*219 PHY_EDGE_ROW_7_Right_7
*220 PHY_EDGE_ROW_8_Left_25
*221 PHY_EDGE_ROW_8_Right_8
*222 PHY_EDGE_ROW_9_Left_26
*223 PHY_EDGE_ROW_9_Right_9
*224 TAP_TAPCELL_ROW_0_34
*225 TAP_TAPCELL_ROW_0_35
*226 TAP_TAPCELL_ROW_0_36
*227 TAP_TAPCELL_ROW_10_50
*228 TAP_TAPCELL_ROW_10_51
*229 TAP_TAPCELL_ROW_11_52
*230 TAP_TAPCELL_ROW_12_53
*231 TAP_TAPCELL_ROW_12_54
*232 TAP_TAPCELL_ROW_13_55
*233 TAP_TAPCELL_ROW_14_56
*234 TAP_TAPCELL_ROW_14_57
*235 TAP_TAPCELL_ROW_15_58
*236 TAP_TAPCELL_ROW_16_59
*237 TAP_TAPCELL_ROW_16_60
*238 TAP_TAPCELL_ROW_16_61
*239 TAP_TAPCELL_ROW_1_37
*240 TAP_TAPCELL_ROW_2_38
*241 TAP_TAPCELL_ROW_2_39
*242 TAP_TAPCELL_ROW_3_40
*243 TAP_TAPCELL_ROW_4_41
*244 TAP_TAPCELL_ROW_4_42
*245 TAP_TAPCELL_ROW_5_43
*246 TAP_TAPCELL_ROW_6_44
*247 TAP_TAPCELL_ROW_6_45
*248 TAP_TAPCELL_ROW_7_46
*249 TAP_TAPCELL_ROW_8_47
*250 TAP_TAPCELL_ROW_8_48
*251 TAP_TAPCELL_ROW_9_49
*252 _34_
*253 _35_
*254 _36_
*255 _37_
*256 _38_
*257 _39_
*258 _40_
*259 _41_
*260 _42_
*261 _43_
*262 _44_
*263 _45_
*264 _46_
*265 _47_
*266 _48_
*267 _49_
*268 _50_
*269 _51_
*270 _52_
*271 _53_
*272 _54_
*273 _55_
*274 _56_
*275 _57_
*276 _58_
*277 _59_
*278 _60_
*279 _61_
*280 _62_
*281 _63_
*282 _64_
*283 _65_
*284 _66_
*285 _67_
*286 _68_
*287 _69_
*288 _70_
*289 _71_
*290 _72_
*291 _73_
*292 _74_
*293 _75_
*294 _76_
*295 clkbuf_0_clk_i
*296 clkbuf_1_0__f_clk_i
*297 clkbuf_1_1__f_clk_i
*298 clkload0
*299 input1
*300 input2
*301 output10
*302 output11
*303 output3
*304 output4
*305 output5
*306 output6
*307 output7
*308 output8
*309 output9

*PORTS
clk_i I
count_o[0] O
count_o[1] O
count_o[2] O
count_o[3] O
count_o[4] O
count_o[5] O
count_o[6] O
count_o[7] O
en_i I
ovf_o O
rst_ni I

*D_NET *3 0.00512873
*CONN
*P clk_i I
*I *295:I I *D gf180mcu_fd_sc_mcu7t5v0__clkbuf_16
*CAP
1 clk_i 0.00153512
2 *295:I 7.91818e-05
3 *3:10 0.0016143
4 *295:I *30:12 7.33973e-05
5 *295:I *36:8 0
6 *3:10 count_o[0] 3.75453e-05
7 *3:10 count_o[1] 0.000128752
8 *3:10 *258:I 5.8316e-05
9 *3:10 *260:A1 8.03677e-05
10 *3:10 *260:A2 0.000206762
11 *3:10 *261:A1 5.00033e-05
12 *3:10 *263:A2 0.000126352
13 *3:10 *285:A1 5.0649e-05
14 *3:10 *286:D 8.86598e-06
15 *3:10 *287:CLK 2.57662e-05
16 *3:10 *298:I 0
17 *3:10 *299:I 3.31517e-06
18 *3:10 *30:12 0.000164756
19 *3:10 *36:8 0
20 *3:10 *52:36 6.18244e-05
21 *3:10 *55:10 0
22 *3:10 *55:66 0.000235189
23 *3:10 *56:10 4.66871e-05
24 *3:10 *56:14 9.99286e-05
25 *3:10 *57:8 0.000200488
26 *3:10 *57:23 0.000241163
*RES
1 clk_i *3:10 18.2411 
2 *3:10 *295:I 5.20393 
*END

*D_NET *4 0.00170337
*CONN
*P count_o[0] O
*I *303:Z O *D gf180mcu_fd_sc_mcu7t5v0__dlyb_1
*CAP
1 count_o[0] 0.000811504
2 *303:Z 0.000811504
3 count_o[0] count_o[1] 4.28136e-05
4 *3:10 count_o[0] 3.75453e-05
*RES
1 *303:Z count_o[0] 14.805 
*END

*D_NET *5 0.00125761
*CONN
*P count_o[1] O
*I *304:Z O *D gf180mcu_fd_sc_mcu7t5v0__dlyb_1
*CAP
1 count_o[1] 0.000379403
2 *304:Z 0.000379403
3 count_o[1] *299:I 0.000316821
4 count_o[1] *300:I 1.0415e-05
5 count_o[1] *304:I 0
6 count_o[0] count_o[1] 4.28136e-05
7 *3:10 count_o[1] 0.000128752
*RES
1 *304:Z count_o[1] 12.915 
*END

*D_NET *6 0.000620645
*CONN
*P count_o[2] O
*I *305:Z O *D gf180mcu_fd_sc_mcu7t5v0__dlyb_1
*CAP
1 count_o[2] 0.000308146
2 *305:Z 0.000308146
3 count_o[2] *269:A1 4.35286e-06
4 count_o[2] *269:A2 0
*RES
1 *305:Z count_o[2] 11.115 
*END

*D_NET *7 0.000887369
*CONN
*P count_o[3] O
*I *306:Z O *D gf180mcu_fd_sc_mcu7t5v0__dlyb_1
*CAP
1 count_o[3] 0.000296469
2 *306:Z 0.000296469
3 count_o[3] *288:CLK 0.000294431
*RES
1 *306:Z count_o[3] 11.475 
*END

*D_NET *8 0.000992912
*CONN
*P count_o[4] O
*I *307:Z O *D gf180mcu_fd_sc_mcu7t5v0__dlyb_1
*CAP
1 count_o[4] 0.000469552
2 *307:Z 0.000469552
3 count_o[4] count_o[5] 5.38082e-05
*RES
1 *307:Z count_o[4] 7.875 
*END

*D_NET *9 0.000653614
*CONN
*P count_o[5] O
*I *308:Z O *D gf180mcu_fd_sc_mcu7t5v0__dlyb_1
*CAP
1 count_o[5] 0.000299903
2 *308:Z 0.000299903
3 count_o[4] count_o[5] 5.38082e-05
*RES
1 *308:Z count_o[5] 6.795 
*END

*D_NET *10 0.000664455
*CONN
*P count_o[6] O
*I *309:Z O *D gf180mcu_fd_sc_mcu7t5v0__dlyb_1
*CAP
1 count_o[6] 0.000332227
2 *309:Z 0.000332227
*RES
1 *309:Z count_o[6] 11.295 
*END

*D_NET *11 0.000854301
*CONN
*P count_o[7] O
*I *301:Z O *D gf180mcu_fd_sc_mcu7t5v0__dlyb_1
*CAP
1 count_o[7] 0.000427151
2 *301:Z 0.000427151
*RES
1 *301:Z count_o[7] 12.015 
*END

*D_NET *12 0.00123986
*CONN
*P en_i I
*I *299:I I *D gf180mcu_fd_sc_mcu7t5v0__dlyb_1
*CAP
1 en_i 0.000233326
2 *299:I 0.000233326
3 *299:I *269:A2 0
4 *299:I *300:I 0.000453074
5 count_o[1] *299:I 0.000316821
6 *3:10 *299:I 3.31517e-06
*RES
1 en_i *299:I 12.195 
*END

*D_NET *13 0.000649705
*CONN
*P ovf_o O
*I *302:Z O *D gf180mcu_fd_sc_mcu7t5v0__dlyb_1
*CAP
1 ovf_o 0.000324853
2 *302:Z 0.000324853
*RES
1 *302:Z ovf_o 6.795 
*END

*D_NET *14 0.00113853
*CONN
*P rst_ni I
*I *300:I I *D gf180mcu_fd_sc_mcu7t5v0__dlyb_1
*CAP
1 rst_ni 0.000337519
2 *300:I 0.000337519
3 *300:I *55:10 0
4 count_o[1] *300:I 1.0415e-05
5 *299:I *300:I 0.000453074
*RES
1 rst_ni *300:I 12.195 
*END

*D_NET *15 0.00112553
*CONN
*I *286:D I *D gf180mcu_fd_sc_mcu7t5v0__dffq_1
*I *261:ZN O *D gf180mcu_fd_sc_mcu7t5v0__aoi22_1
*CAP
1 *286:D 0.000336739
2 *261:ZN 0.000336739
3 *286:D *258:I 5.56945e-06
4 *286:D *261:A2 1.71254e-05
5 *286:D *283:A1 1.18477e-05
6 *286:D *285:A1 0.000253664
7 *286:D *55:62 3.64412e-05
8 *286:D *55:86 0.000118541
9 *3:10 *286:D 8.86598e-06
*RES
1 *261:ZN *286:D 20.52 
*END

*D_NET *16 0.000575443
*CONN
*I *287:D I *D gf180mcu_fd_sc_mcu7t5v0__dffq_1
*I *265:ZN O *D gf180mcu_fd_sc_mcu7t5v0__nor2_1
*CAP
1 *287:D 0.0001674
2 *265:ZN 0.0001674
3 *287:D *265:A1 4.29496e-05
4 *287:D *265:A2 0.000167545
5 *287:D *57:23 3.01487e-05
*RES
1 *265:ZN *287:D 10.62 
*END

*D_NET *17 0.00148442
*CONN
*I *288:D I *D gf180mcu_fd_sc_mcu7t5v0__dffq_1
*I *269:ZN O *D gf180mcu_fd_sc_mcu7t5v0__aoi21_1
*CAP
1 *288:D 0.000149993
2 *269:ZN 0.000149993
3 *288:D *269:A1 0.000916503
4 *288:D *269:A2 0.000244347
5 *288:D *271:A1 5.97457e-06
6 *288:D *271:A2 6.99566e-06
7 *288:D *288:CLK 1.06178e-05
*RES
1 *269:ZN *288:D 11.79 
*END

*D_NET *18 0.000567158
*CONN
*I *289:D I *D gf180mcu_fd_sc_mcu7t5v0__dffq_1
*I *271:ZN O *D gf180mcu_fd_sc_mcu7t5v0__aoi21_1
*CAP
1 *289:D 0.000208475
2 *271:ZN 0.000208475
3 *289:D *271:A1 0.000150207
*RES
1 *271:ZN *289:D 10.62 
*END

*D_NET *19 0.00179495
*CONN
*I *290:D I *D gf180mcu_fd_sc_mcu7t5v0__dffq_1
*I *274:ZN O *D gf180mcu_fd_sc_mcu7t5v0__nor3_1
*CAP
1 *290:D 0.000828036
2 *274:ZN 0.000828036
3 *290:D *272:A2 0
4 *290:D *273:A2 0.000117184
5 *290:D *290:CLK 0
6 *290:D *37:14 4.28139e-06
7 *290:D *50:25 1.1624e-05
8 *290:D *59:10 0
9 *290:D *60:31 5.78854e-06
*RES
1 *274:ZN *290:D 14.04 
*END

*D_NET *20 0.00181724
*CONN
*I *291:D I *D gf180mcu_fd_sc_mcu7t5v0__dffq_1
*I *277:Z O *D gf180mcu_fd_sc_mcu7t5v0__and3_1
*CAP
1 *291:D 0.000315769
2 *277:Z 0.000315769
3 *291:D *291:CLK 0.000116108
4 *291:D *307:I 0.000196878
5 *291:D *60:21 0.000872717
*RES
1 *277:Z *291:D 12.78 
*END

*D_NET *21 0.00102963
*CONN
*I *292:D I *D gf180mcu_fd_sc_mcu7t5v0__dffq_1
*I *280:ZN O *D gf180mcu_fd_sc_mcu7t5v0__aoi211_1
*CAP
1 *292:D 0.000211123
2 *280:ZN 0.000211123
3 *292:D *278:A3 9.04462e-05
4 *292:D *279:A1 0.000292006
5 *292:D *279:A2 0.000185696
6 *292:D *280:A1 1.61251e-05
7 *292:D *280:B 2.31089e-05
*RES
1 *280:ZN *292:D 20.16 
*END

*D_NET *22 0.000665923
*CONN
*I *293:D I *D gf180mcu_fd_sc_mcu7t5v0__dffq_1
*I *283:Z O *D gf180mcu_fd_sc_mcu7t5v0__and3_1
*CAP
1 *293:D 0.000276155
2 *283:Z 0.000276155
3 *293:D *283:A2 0.000113613
*RES
1 *283:Z *293:D 11.07 
*END

*D_NET *23 0.000357366
*CONN
*I *294:D I *D gf180mcu_fd_sc_mcu7t5v0__dffq_1
*I *285:ZN O *D gf180mcu_fd_sc_mcu7t5v0__oai21_1
*CAP
1 *294:D 0.000170624
2 *285:ZN 0.000170624
3 *294:D *285:A2 1.61174e-05
4 *294:D *294:CLK 0
*RES
1 *285:ZN *294:D 10.08 
*END

*D_NET *24 0.00296583
*CONN
*I *282:A1 I *D gf180mcu_fd_sc_mcu7t5v0__or4_1
*I *281:B I *D gf180mcu_fd_sc_mcu7t5v0__oai31_1
*I *252:ZN O *D gf180mcu_fd_sc_mcu7t5v0__clkinv_1
*CAP
1 *282:A1 0.000164275
2 *281:B 8.0004e-05
3 *252:ZN 0.000717369
4 *24:10 0.000961648
5 *281:B *282:A2 0.000294421
6 *281:B *30:12 0
7 *282:A1 *282:A2 0.000507502
8 *282:A1 *30:12 0
9 *24:10 *278:A1 2.4935e-05
10 *24:10 *280:A1 0
11 *24:10 *283:A2 0.000148463
12 *24:10 *61:29 0
13 *24:10 *62:23 6.72143e-05
*RES
1 *252:ZN *24:10 19.35 
2 *24:10 *281:B 5.31 
3 *24:10 *282:A1 6.3 
*END

*D_NET *25 0.00237377
*CONN
*I *280:A1 I *D gf180mcu_fd_sc_mcu7t5v0__aoi211_1
*I *253:ZN O *D gf180mcu_fd_sc_mcu7t5v0__clkinv_1
*CAP
1 *280:A1 0.000242246
2 *253:ZN 0.000242246
3 *280:A1 *278:A1 0.000244819
4 *280:A1 *278:A3 1.11402e-05
5 *280:A1 *279:A2 1.07281e-05
6 *280:A1 *280:B 3.55118e-05
7 *280:A1 *280:C 2.16833e-05
8 *280:A1 *283:A2 8.42994e-05
9 *280:A1 *28:54 9.89629e-06
10 *280:A1 *37:50 0.000274264
11 *280:A1 *44:12 0.000536348
12 *280:A1 *61:29 0.000644464
13 *292:D *280:A1 1.61251e-05
14 *24:10 *280:A1 0
*RES
1 *253:ZN *280:A1 21.6 
*END

*D_NET *26 0.000160952
*CONN
*I *275:B I *D gf180mcu_fd_sc_mcu7t5v0__oai31_1
*I *254:ZN O *D gf180mcu_fd_sc_mcu7t5v0__clkinv_1
*CAP
1 *275:B 8.0476e-05
2 *254:ZN 8.0476e-05
*RES
1 *254:ZN *275:B 9.63 
*END

*D_NET *27 0.00164526
*CONN
*I *275:A1 I *D gf180mcu_fd_sc_mcu7t5v0__oai31_1
*I *273:A1 I *D gf180mcu_fd_sc_mcu7t5v0__nor3_1
*I *255:ZN O *D gf180mcu_fd_sc_mcu7t5v0__clkinv_1
*CAP
1 *275:A1 0.000250971
2 *273:A1 0.000172741
3 *255:ZN 0
4 *27:4 0.000423712
5 *273:A1 *277:A2 0
6 *273:A1 *37:33 2.36914e-05
7 *273:A1 *60:31 0.000164772
8 *275:A1 *275:A2 0.000158798
9 *275:A1 *277:A2 0.000236272
10 *275:A1 *37:33 4.28304e-05
11 *275:A1 *37:46 3.23091e-05
12 *275:A1 *43:8 0.000136074
13 *275:A1 *60:31 3.08912e-06
*RES
1 *255:ZN *27:4 4.5 
2 *27:4 *273:A1 5.94 
3 *27:4 *275:A1 7.11 
*END

*D_NET *28 0.0104189
*CONN
*I *279:A1 I *D gf180mcu_fd_sc_mcu7t5v0__nor3_1
*I *282:A2 I *D gf180mcu_fd_sc_mcu7t5v0__or4_1
*I *281:A1 I *D gf180mcu_fd_sc_mcu7t5v0__oai31_1
*I *275:A2 I *D gf180mcu_fd_sc_mcu7t5v0__oai31_1
*I *273:A2 I *D gf180mcu_fd_sc_mcu7t5v0__nor3_1
*I *270:A1 I *D gf180mcu_fd_sc_mcu7t5v0__oai21_1
*I *271:A1 I *D gf180mcu_fd_sc_mcu7t5v0__aoi21_1
*I *256:ZN O *D gf180mcu_fd_sc_mcu7t5v0__clkinv_1
*CAP
1 *279:A1 0.000219717
2 *282:A2 0.000121441
3 *281:A1 0
4 *275:A2 2.67138e-05
5 *273:A2 6.83064e-05
6 *270:A1 0
7 *271:A1 0.000234023
8 *256:ZN 0
9 *28:54 0.00039175
10 *28:50 0.000623986
11 *28:39 0.00025888
12 *28:28 0.00041593
13 *28:8 0.000270555
14 *28:6 0.000285947
15 *271:A1 *269:B 9.08599e-05
16 *271:A1 *271:A2 0.000824392
17 *271:A1 *50:25 2.68706e-05
18 *273:A2 *60:31 0.000354728
19 *275:A2 *37:33 4.45215e-05
20 *275:A2 *37:46 3.55118e-05
21 *279:A1 *278:A3 7.52869e-05
22 *279:A1 *279:A2 0.000243605
23 *279:A1 *280:A2 0.000174506
24 *279:A1 *280:B 8.71224e-05
25 *279:A1 *292:CLK 0.000170254
26 *279:A1 *37:46 4.71736e-05
27 *279:A1 *61:23 1.91289e-05
28 *282:A2 *282:A3 0.000219834
29 *28:8 *269:B 1.71254e-05
30 *28:8 *277:A1 0.000400853
31 *28:8 *306:I 3.53802e-05
32 *28:8 *50:25 9.58197e-05
33 *28:28 *274:A3 0.000143872
34 *28:28 *277:A1 0.00099218
35 *28:28 *37:33 1.07281e-05
36 *28:28 *50:25 2.39559e-05
37 *28:39 *277:A1 0.000656427
38 *28:39 *37:33 8.27731e-05
39 *28:39 *60:23 4.10656e-05
40 *28:50 *277:A1 8.67164e-05
41 *28:50 *278:A3 4.21768e-05
42 *28:50 *280:A2 0.000604092
43 *28:50 *37:46 4.03674e-05
44 *28:50 *60:23 0.000109811
45 *28:54 *254:I 3.23879e-05
46 *28:54 *276:A1 5.3655e-05
47 *28:54 *280:B 3.84753e-06
48 *28:54 *282:A3 5.36871e-05
49 *28:54 *37:50 2.49496e-05
50 *28:54 *43:8 0
51 *275:A1 *275:A2 0.000158798
52 *280:A1 *28:54 9.89629e-06
53 *281:B *282:A2 0.000294421
54 *282:A1 *282:A2 0.000507502
55 *288:D *271:A1 5.97457e-06
56 *289:D *271:A1 0.000150207
57 *290:D *273:A2 0.000117184
58 *292:D *279:A1 0.000292006
*RES
1 *256:ZN *28:6 9 
2 *28:6 *28:8 1.35 
3 *28:8 *271:A1 11.88 
4 *28:8 *270:A1 9 
5 *28:6 *28:28 2.79 
6 *28:28 *273:A2 9.99 
7 *28:28 *28:39 1.71 
8 *28:39 *275:A2 9.45 
9 *28:39 *28:50 2.25 
10 *28:50 *28:54 6.21 
11 *28:54 *281:A1 4.5 
12 *28:54 *282:A2 6.75 
13 *28:50 *279:A1 12.6 
*END

*D_NET *29 0.00227879
*CONN
*I *269:A1 I *D gf180mcu_fd_sc_mcu7t5v0__aoi21_1
*I *257:ZN O *D gf180mcu_fd_sc_mcu7t5v0__clkinv_1
*CAP
1 *269:A1 0.000491808
2 *257:ZN 0.000491808
3 *269:A1 *269:A2 7.07276e-05
4 *269:A1 *288:CLK 0.00014946
5 *269:A1 *305:I 0.000154129
6 count_o[2] *269:A1 4.35286e-06
7 *288:D *269:A1 0.000916503
*RES
1 *257:ZN *269:A1 23.4 
*END

*D_NET *30 0.00834176
*CONN
*I *285:A1 I *D gf180mcu_fd_sc_mcu7t5v0__oai21_1
*I *280:C I *D gf180mcu_fd_sc_mcu7t5v0__aoi211_1
*I *274:A1 I *D gf180mcu_fd_sc_mcu7t5v0__nor3_1
*I *258:ZN O *D gf180mcu_fd_sc_mcu7t5v0__clkinv_1
*CAP
1 *285:A1 0.000406855
2 *280:C 0.00020575
3 *274:A1 0.000248351
4 *258:ZN 0
5 *30:12 0.00106919
6 *30:4 0.00102195
7 *274:A1 *276:A2 6.05852e-05
8 *274:A1 *276:A3 0.000312562
9 *274:A1 *276:A4 6.76406e-05
10 *274:A1 *277:A1 1.52092e-05
11 *274:A1 *59:32 0.000555256
12 *280:C *276:A1 0.000127326
13 *280:C *277:A1 9.01083e-06
14 *280:C *278:A3 6.06287e-05
15 *280:C *279:A2 0.000302284
16 *280:C *280:B 1.61174e-05
17 *280:C *37:46 0.00120868
18 *280:C *61:29 0.000346414
19 *285:A1 *258:I 9.85004e-05
20 *285:A1 *283:A1 0.00117688
21 *285:A1 *294:CLK 7.191e-07
22 *285:A1 *47:6 6.20831e-05
23 *285:A1 *49:15 1.71254e-05
24 *30:12 *276:A2 0.000365454
25 *30:12 *36:8 0
26 *30:12 *43:8 2.3037e-05
27 *280:A1 *280:C 2.16833e-05
28 *281:B *30:12 0
29 *282:A1 *30:12 0
30 *286:D *285:A1 0.000253664
31 *295:I *30:12 7.33973e-05
32 *3:10 *285:A1 5.0649e-05
33 *3:10 *30:12 0.000164756
*RES
1 *258:ZN *30:4 4.5 
2 *30:4 *30:12 9.63 
3 *30:12 *274:A1 11.79 
4 *30:12 *280:C 13.5 
5 *30:4 *285:A1 18.27 
*END

*D_NET *31 0.00541069
*CONN
*I *284:A2 I *D gf180mcu_fd_sc_mcu7t5v0__nand2_1
*I *261:B1 I *D gf180mcu_fd_sc_mcu7t5v0__aoi22_1
*I *259:ZN O *D gf180mcu_fd_sc_mcu7t5v0__nand2_1
*CAP
1 *284:A2 0.00051265
2 *261:B1 5.28626e-05
3 *259:ZN 7.65499e-05
4 *31:6 0.000642062
5 *261:B1 *261:A1 0.000172257
6 *261:B1 *261:B2 0.000433797
7 *284:A2 *283:A1 0.000430608
8 *284:A2 *283:A2 0
9 *284:A2 *283:A3 7.90122e-05
10 *284:A2 *285:B 0.00015673
11 *284:A2 *287:CLK 0.000862244
12 *284:A2 *51:17 0.000919223
13 *284:A2 *51:19 0.000437294
14 *284:A2 *55:62 3.62872e-05
15 *284:A2 *55:86 6.72969e-05
16 *31:6 *259:A1 0.000100224
17 *31:6 *261:A1 5.20752e-05
18 *31:6 *261:B2 0.000379514
*RES
1 *259:ZN *31:6 5.67 
2 *31:6 *261:B1 5.67 
3 *31:6 *284:A2 21.24 
*END

*D_NET *32 0.00132924
*CONN
*I *261:B2 I *D gf180mcu_fd_sc_mcu7t5v0__aoi22_1
*I *260:ZN O *D gf180mcu_fd_sc_mcu7t5v0__nand2_1
*CAP
1 *261:B2 0.000218763
2 *260:ZN 0.000218763
3 *261:B2 *260:A1 7.84041e-05
4 *261:B2 *261:A2 0
5 *261:B2 *56:8 0
6 *261:B2 *56:38 0
7 *261:B1 *261:B2 0.000433797
8 *31:6 *261:B2 0.000379514
*RES
1 *260:ZN *261:B2 11.25 
*END

*D_NET *33 0.00179673
*CONN
*I *265:A1 I *D gf180mcu_fd_sc_mcu7t5v0__nor2_1
*I *262:ZN O *D gf180mcu_fd_sc_mcu7t5v0__aoi21_1
*CAP
1 *265:A1 7.32823e-05
2 *262:ZN 7.32823e-05
3 *265:A1 *262:A2 3.01487e-05
4 *265:A1 *265:A2 0.000681999
5 *265:A1 *303:I 0.00089507
6 *287:D *265:A1 4.29496e-05
*RES
1 *262:ZN *265:A1 11.43 
*END

*D_NET *34 0.00310678
*CONN
*I *264:A2 I *D gf180mcu_fd_sc_mcu7t5v0__nand2_1
*I *269:A2 I *D gf180mcu_fd_sc_mcu7t5v0__aoi21_1
*I *263:ZN O *D gf180mcu_fd_sc_mcu7t5v0__nand3_1
*CAP
1 *264:A2 0
2 *269:A2 0.000672346
3 *263:ZN 0.000296979
4 *34:12 0.000969325
5 *269:A2 *271:A2 4.6613e-06
6 *269:A2 *305:I 7.32872e-05
7 *269:A2 *306:I 0.00022444
8 *269:A2 *37:87 7.71021e-06
9 *269:A2 *52:10 0.000111961
10 *269:A2 *55:10 2.35868e-05
11 *269:A2 *55:27 0
12 *269:A2 *55:29 0
13 *34:12 *265:A2 7.84041e-05
14 *34:12 *52:25 8.38102e-05
15 *34:12 *55:10 8.7586e-05
16 *34:12 *55:16 3.54696e-05
17 *34:12 *55:27 1.0415e-05
18 *34:12 *55:62 7.54325e-05
19 *34:12 *56:14 3.62872e-05
20 count_o[2] *269:A2 0
21 *269:A1 *269:A2 7.07276e-05
22 *288:D *269:A2 0.000244347
23 *299:I *269:A2 0
*RES
1 *263:ZN *34:12 16.02 
2 *34:12 *269:A2 19.62 
3 *34:12 *264:A2 4.5 
*END

*D_NET *35 0.00183325
*CONN
*I *265:A2 I *D gf180mcu_fd_sc_mcu7t5v0__nor2_1
*I *264:ZN O *D gf180mcu_fd_sc_mcu7t5v0__nand2_1
*CAP
1 *265:A2 0.000270814
2 *264:ZN 0.000270814
3 *265:A2 *262:A2 2.93836e-05
4 *265:A2 *264:A1 3.22122e-05
5 *265:A2 *52:21 0.000161852
6 *265:A2 *55:10 5.30888e-06
7 *265:A2 *55:16 4.08861e-05
8 *265:A2 *57:23 7.00666e-05
9 *265:A2 *57:25 2.3969e-05
10 *265:A1 *265:A2 0.000681999
11 *287:D *265:A2 0.000167545
12 *34:12 *265:A2 7.84041e-05
*RES
1 *264:ZN *265:A2 12.69 
*END

*D_NET *36 0.00222473
*CONN
*I *272:A2 I *D gf180mcu_fd_sc_mcu7t5v0__aoi21_1
*I *276:A4 I *D gf180mcu_fd_sc_mcu7t5v0__nand4_1
*I *266:Z O *D gf180mcu_fd_sc_mcu7t5v0__and4_1
*CAP
1 *272:A2 0.000263742
2 *276:A4 0.000124189
3 *266:Z 0.000639718
4 *36:8 0.00102765
5 *272:A2 *272:A1 3.12451e-05
6 *272:A2 *276:A3 1.81987e-05
7 *272:A2 *37:14 0
8 *36:8 *37:8 5.1628e-05
9 *36:8 *37:14 7.191e-07
10 *274:A1 *276:A4 6.76406e-05
11 *290:D *272:A2 0
12 *295:I *36:8 0
13 *3:10 *36:8 0
14 *30:12 *36:8 0
*RES
1 *266:Z *36:8 8.64 
2 *36:8 *276:A4 14.49 
3 *36:8 *272:A2 6.12 
*END

*D_NET *37 0.0138118
*CONN
*I *268:A2 I *D gf180mcu_fd_sc_mcu7t5v0__nand2_1
*I *270:A2 I *D gf180mcu_fd_sc_mcu7t5v0__oai21_1
*I *271:A2 I *D gf180mcu_fd_sc_mcu7t5v0__aoi21_1
*I *279:A2 I *D gf180mcu_fd_sc_mcu7t5v0__nor3_1
*I *281:A2 I *D gf180mcu_fd_sc_mcu7t5v0__oai31_1
*I *282:A3 I *D gf180mcu_fd_sc_mcu7t5v0__or4_1
*I *275:A3 I *D gf180mcu_fd_sc_mcu7t5v0__oai31_1
*I *273:A3 I *D gf180mcu_fd_sc_mcu7t5v0__nor3_1
*I *267:ZN O *D gf180mcu_fd_sc_mcu7t5v0__nand4_1
*CAP
1 *268:A2 0
2 *270:A2 0
3 *271:A2 0.000275024
4 *279:A2 0.000197379
5 *281:A2 0
6 *282:A3 0.000287831
7 *275:A3 0
8 *273:A3 4.16733e-05
9 *267:ZN 0.000420693
10 *37:87 0.000508979
11 *37:81 0.000537388
12 *37:50 0.000374176
13 *37:46 0.000446722
14 *37:33 0.000493033
15 *37:14 0.00092231
16 *37:8 0.00127473
17 *271:A2 *269:B 1.0415e-05
18 *271:A2 *271:B 0.000824392
19 *271:A2 *55:29 1.27836e-05
20 *279:A2 *278:A3 5.79059e-06
21 *279:A2 *292:CLK 1.85805e-05
22 *279:A2 *61:23 0.000567799
23 *279:A2 *61:29 0.000127578
24 *282:A3 *278:A3 0
25 *282:A3 *282:A4 0.000206069
26 *282:A3 *44:12 2.30981e-05
27 *37:8 *267:A4 0
28 *37:8 *55:27 0
29 *37:8 *58:8 3.32854e-05
30 *37:14 *274:A3 0.000669571
31 *37:14 *50:10 0
32 *37:14 *50:25 0.000101615
33 *37:14 *59:10 2.54278e-05
34 *37:33 *274:A3 3.64412e-05
35 *37:33 *276:A2 3.01487e-05
36 *37:33 *50:10 0
37 *37:33 *60:23 3.64412e-05
38 *37:33 *60:31 0.000388847
39 *37:46 *276:A2 2.93938e-05
40 *37:46 *277:A1 5.98445e-05
41 *37:46 *280:A2 0.000341181
42 *37:81 *306:I 1.85284e-05
43 *37:81 *59:12 1.90809e-05
44 *37:81 *59:32 5.60389e-06
45 *37:87 *269:B 0.000195939
46 *37:87 *306:I 0.000459967
47 *269:A2 *271:A2 4.6613e-06
48 *269:A2 *37:87 7.71021e-06
49 *271:A1 *271:A2 0.000824392
50 *272:A2 *37:14 0
51 *273:A1 *37:33 2.36914e-05
52 *275:A1 *37:33 4.28304e-05
53 *275:A1 *37:46 3.23091e-05
54 *275:A2 *37:33 4.45215e-05
55 *275:A2 *37:46 3.55118e-05
56 *279:A1 *279:A2 0.000243605
57 *279:A1 *37:46 4.71736e-05
58 *280:A1 *279:A2 1.07281e-05
59 *280:A1 *37:50 0.000274264
60 *280:C *279:A2 0.000302284
61 *280:C *37:46 0.00120868
62 *282:A2 *282:A3 0.000219834
63 *288:D *271:A2 6.99566e-06
64 *290:D *37:14 4.28139e-06
65 *292:D *279:A2 0.000185696
66 *28:28 *37:33 1.07281e-05
67 *28:39 *37:33 8.27731e-05
68 *28:50 *37:46 4.03674e-05
69 *28:54 *282:A3 5.36871e-05
70 *28:54 *37:50 2.49496e-05
71 *36:8 *37:8 5.1628e-05
72 *36:8 *37:14 7.191e-07
*RES
1 *267:ZN *37:8 7.38 
2 *37:8 *37:14 8.46 
3 *37:14 *273:A3 9.27 
4 *37:14 *37:33 7.38 
5 *37:33 *275:A3 4.5 
6 *37:33 *37:46 8.19 
7 *37:46 *37:50 5.31 
8 *37:50 *282:A3 7.65 
9 *37:50 *281:A2 4.5 
10 *37:46 *279:A2 12.6 
11 *37:8 *37:81 6.39 
12 *37:81 *37:87 6.84 
13 *37:87 *271:A2 8.55 
14 *37:87 *270:A2 4.5 
15 *37:81 *268:A2 9 
*END

*D_NET *38 0.00137798
*CONN
*I *269:B I *D gf180mcu_fd_sc_mcu7t5v0__aoi21_1
*I *268:ZN O *D gf180mcu_fd_sc_mcu7t5v0__nand2_1
*CAP
1 *269:B 0.000315295
2 *268:ZN 0.000315295
3 *269:B *306:I 0.00023711
4 *269:B *50:25 0
5 *269:B *55:29 0.000195939
6 *271:A1 *269:B 9.08599e-05
7 *271:A2 *269:B 1.0415e-05
8 *28:8 *269:B 1.71254e-05
9 *37:87 *269:B 0.000195939
*RES
1 *268:ZN *269:B 21.24 
*END

*D_NET *39 0.00126258
*CONN
*I *271:B I *D gf180mcu_fd_sc_mcu7t5v0__aoi21_1
*I *270:ZN O *D gf180mcu_fd_sc_mcu7t5v0__oai21_1
*CAP
1 *271:B 0.000219096
2 *270:ZN 0.000219096
3 *271:A2 *271:B 0.000824392
*RES
1 *270:ZN *271:B 11.25 
*END

*D_NET *40 0.00133735
*CONN
*I *274:A2 I *D gf180mcu_fd_sc_mcu7t5v0__nor3_1
*I *272:ZN O *D gf180mcu_fd_sc_mcu7t5v0__aoi21_1
*CAP
1 *274:A2 5.17645e-05
2 *272:ZN 5.17645e-05
3 *274:A2 *277:A1 0.000616912
4 *274:A2 *59:32 0.000616912
*RES
1 *272:ZN *274:A2 19.71 
*END

*D_NET *41 0.00171378
*CONN
*I *274:A3 I *D gf180mcu_fd_sc_mcu7t5v0__nor3_1
*I *273:ZN O *D gf180mcu_fd_sc_mcu7t5v0__nor3_1
*CAP
1 *274:A3 0.000238918
2 *273:ZN 0.000238918
3 *274:A3 *50:25 4.70674e-05
4 *274:A3 *59:10 0.000338994
5 *28:28 *274:A3 0.000143872
6 *37:14 *274:A3 0.000669571
7 *37:33 *274:A3 3.64412e-05
*RES
1 *273:ZN *274:A3 20.88 
*END

*D_NET *42 0.000642696
*CONN
*I *277:A2 I *D gf180mcu_fd_sc_mcu7t5v0__and3_1
*I *275:ZN O *D gf180mcu_fd_sc_mcu7t5v0__oai31_1
*CAP
1 *277:A2 9.17738e-05
2 *275:ZN 9.17738e-05
3 *277:A2 *277:A1 1.61174e-05
4 *277:A2 *277:A3 0.000206759
5 *273:A1 *277:A2 0
6 *275:A1 *277:A2 0.000236272
*RES
1 *275:ZN *277:A2 10.35 
*END

*D_NET *43 0.00250246
*CONN
*I *280:A2 I *D gf180mcu_fd_sc_mcu7t5v0__aoi211_1
*I *277:A3 I *D gf180mcu_fd_sc_mcu7t5v0__and3_1
*I *276:ZN O *D gf180mcu_fd_sc_mcu7t5v0__nand4_1
*CAP
1 *280:A2 8.25868e-05
2 *277:A3 0.000123803
3 *276:ZN 0.000282289
4 *43:8 0.000488679
5 *43:8 *254:I 1.70411e-05
6 *43:8 *276:A1 2.24153e-05
7 *43:8 *276:A2 0
8 *275:A1 *43:8 0.000136074
9 *277:A2 *277:A3 0.000206759
10 *279:A1 *280:A2 0.000174506
11 *28:50 *280:A2 0.000604092
12 *28:54 *43:8 0
13 *30:12 *43:8 2.3037e-05
14 *37:46 *280:A2 0.000341181
*RES
1 *276:ZN *43:8 6.66 
2 *43:8 *277:A3 5.49 
3 *43:8 *280:A2 15.39 
*END

*D_NET *44 0.00332957
*CONN
*I *279:A3 I *D gf180mcu_fd_sc_mcu7t5v0__nor3_1
*I *282:A4 I *D gf180mcu_fd_sc_mcu7t5v0__or4_1
*I *281:A3 I *D gf180mcu_fd_sc_mcu7t5v0__oai31_1
*I *278:ZN O *D gf180mcu_fd_sc_mcu7t5v0__nand3_1
*CAP
1 *279:A3 0.000172873
2 *282:A4 0.000316843
3 *281:A3 0
4 *278:ZN 0.000220882
5 *44:12 0.000364852
6 *279:A3 *278:A2 8.22041e-06
7 *279:A3 *49:36 0.000111199
8 *279:A3 *61:23 0.00077391
9 *282:A4 *278:A2 0
10 *282:A4 *278:A3 2.89427e-06
11 *282:A4 *283:A2 0
12 *282:A4 *49:6 5.50498e-05
13 *44:12 *278:A3 8.68281e-06
14 *44:12 *283:A2 0.000528649
15 *280:A1 *44:12 0.000536348
16 *282:A3 *282:A4 0.000206069
17 *282:A3 *44:12 2.30981e-05
*RES
1 *278:ZN *44:12 15.12 
2 *44:12 *281:A3 4.5 
3 *44:12 *282:A4 7.2 
4 *278:ZN *279:A3 11.25 
*END

*D_NET *45 0.00105575
*CONN
*I *280:B I *D gf180mcu_fd_sc_mcu7t5v0__aoi211_1
*I *279:ZN O *D gf180mcu_fd_sc_mcu7t5v0__nor3_1
*CAP
1 *280:B 0.000262026
2 *279:ZN 0.000262026
3 *280:B *278:A3 0.000365993
4 *280:B *292:CLK 0
5 *279:A1 *280:B 8.71224e-05
6 *280:A1 *280:B 3.55118e-05
7 *280:C *280:B 1.61174e-05
8 *292:D *280:B 2.31089e-05
9 *28:54 *280:B 3.84753e-06
*RES
1 *279:ZN *280:B 20.34 
*END

*D_NET *46 0.00334609
*CONN
*I *283:A2 I *D gf180mcu_fd_sc_mcu7t5v0__and3_1
*I *281:ZN O *D gf180mcu_fd_sc_mcu7t5v0__oai31_1
*CAP
1 *283:A2 0.000777259
2 *281:ZN 0.000777259
3 *283:A2 *278:A1 9.85004e-05
4 *283:A2 *278:A2 9.85004e-05
5 *283:A2 *283:A1 0.000286817
6 *283:A2 *293:CLK 0.000192205
7 *283:A2 *49:6 4.18699e-05
8 *283:A2 *49:15 2.70644e-05
9 *283:A2 *49:31 0
10 *283:A2 *49:36 0
11 *283:A2 *51:17 0.000124363
12 *283:A2 *61:29 4.72231e-05
13 *280:A1 *283:A2 8.42994e-05
14 *282:A4 *283:A2 0
15 *284:A2 *283:A2 0
16 *293:D *283:A2 0.000113613
17 *24:10 *283:A2 0.000148463
18 *44:12 *283:A2 0.000528649
*RES
1 *281:ZN *283:A2 25.92 
*END

*D_NET *47 0.00202447
*CONN
*I *283:A3 I *D gf180mcu_fd_sc_mcu7t5v0__and3_1
*I *285:A2 I *D gf180mcu_fd_sc_mcu7t5v0__oai21_1
*I *282:Z O *D gf180mcu_fd_sc_mcu7t5v0__or4_1
*CAP
1 *283:A3 7.00243e-05
2 *285:A2 2.94878e-05
3 *282:Z 0.000297239
4 *47:6 0.000396751
5 *283:A3 *285:B 0.000538918
6 *283:A3 *294:CLK 0
7 *283:A3 *51:17 0.000315457
8 *47:6 *49:15 0.000151417
9 *47:6 *51:17 6.79638e-05
10 *284:A2 *283:A3 7.90122e-05
11 *285:A1 *47:6 6.20831e-05
12 *294:D *285:A2 1.61174e-05
*RES
1 *282:Z *47:6 6.75 
2 *47:6 *285:A2 4.77 
3 *47:6 *283:A3 15.12 
*END

*D_NET *48 0.00157051
*CONN
*I *285:B I *D gf180mcu_fd_sc_mcu7t5v0__oai21_1
*I *284:ZN O *D gf180mcu_fd_sc_mcu7t5v0__nand2_1
*CAP
1 *285:B 0.000358397
2 *284:ZN 0.000358397
3 *285:B *51:17 0.000158069
4 *283:A3 *285:B 0.000538918
5 *284:A2 *285:B 0.00015673
*RES
1 *284:ZN *285:B 22.05 
*END

*D_NET *49 0.00289509
*CONN
*I *296:I I *D gf180mcu_fd_sc_mcu7t5v0__clkbuf_16
*I *297:I I *D gf180mcu_fd_sc_mcu7t5v0__clkbuf_16
*I *295:Z O *D gf180mcu_fd_sc_mcu7t5v0__clkbuf_16
*CAP
1 *296:I 0.000129238
2 *297:I 0
3 *295:Z 0.000225632
4 *49:36 0.000624383
5 *49:31 0.000629347
6 *49:15 0.000220753
7 *49:6 0.000312182
8 *296:I *61:23 1.58051e-05
9 *49:15 *283:A1 9.83962e-05
10 *49:15 *293:CLK 0.000192205
11 *49:15 *51:17 2.36813e-05
12 *49:36 *278:A1 1.03727e-05
13 *49:36 *278:A2 0
14 *49:36 *61:23 9.37447e-06
15 *279:A3 *49:36 0.000111199
16 *282:A4 *49:6 5.50498e-05
17 *283:A2 *49:6 4.18699e-05
18 *283:A2 *49:15 2.70644e-05
19 *283:A2 *49:31 0
20 *283:A2 *49:36 0
21 *285:A1 *49:15 1.71254e-05
22 *47:6 *49:15 0.000151417
*RES
1 *295:Z *49:6 5.31 
2 *49:6 *49:15 7.2 
3 *49:15 *297:I 9 
4 *295:Z *49:31 5.2425 
5 *49:31 *49:36 3.5775 
6 *49:36 *296:I 5.31 
*END

*D_NET *50 0.00695262
*CONN
*I *292:CLK I *D gf180mcu_fd_sc_mcu7t5v0__dffq_1
*I *291:CLK I *D gf180mcu_fd_sc_mcu7t5v0__dffq_1
*I *288:CLK I *D gf180mcu_fd_sc_mcu7t5v0__dffq_1
*I *289:CLK I *D gf180mcu_fd_sc_mcu7t5v0__dffq_1
*I *290:CLK I *D gf180mcu_fd_sc_mcu7t5v0__dffq_1
*I *296:Z O *D gf180mcu_fd_sc_mcu7t5v0__clkbuf_16
*CAP
1 *292:CLK 0.000409338
2 *291:CLK 0.000329527
3 *288:CLK 0.000471905
4 *289:CLK 0
5 *290:CLK 0.000250495
6 *296:Z 0.00102935
7 *50:25 0.00138968
8 *50:10 0.00145876
9 *291:CLK *307:I 0
10 *292:CLK *278:A3 0.000503125